* NGSPICE file created from DDS_Module.ext - technology: gf180mcuD

* Black-box entry subcircuit for gf180mcu_fd_sc_mcu7t5v0__fillcap_4 abstract view
.subckt gf180mcu_fd_sc_mcu7t5v0__fillcap_4 VDD VNW VPW VSS
.ends

* Black-box entry subcircuit for gf180mcu_fd_sc_mcu7t5v0__nand2_2 abstract view
.subckt gf180mcu_fd_sc_mcu7t5v0__nand2_2 A1 A2 ZN VDD VNW VPW VSS
.ends

* Black-box entry subcircuit for gf180mcu_fd_sc_mcu7t5v0__xor2_1 abstract view
.subckt gf180mcu_fd_sc_mcu7t5v0__xor2_1 A1 A2 Z VDD VNW VPW VSS
.ends

* Black-box entry subcircuit for gf180mcu_fd_sc_mcu7t5v0__fill_2 abstract view
.subckt gf180mcu_fd_sc_mcu7t5v0__fill_2 VDD VNW VPW VSS
.ends

* Black-box entry subcircuit for gf180mcu_fd_sc_mcu7t5v0__fillcap_16 abstract view
.subckt gf180mcu_fd_sc_mcu7t5v0__fillcap_16 VDD VNW VPW VSS
.ends

* Black-box entry subcircuit for gf180mcu_fd_sc_mcu7t5v0__antenna abstract view
.subckt gf180mcu_fd_sc_mcu7t5v0__antenna I VDD VNW VPW VSS
.ends

* Black-box entry subcircuit for gf180mcu_fd_sc_mcu7t5v0__filltie abstract view
.subckt gf180mcu_fd_sc_mcu7t5v0__filltie VDD VSS
.ends

* Black-box entry subcircuit for gf180mcu_fd_sc_mcu7t5v0__xor3_2 abstract view
.subckt gf180mcu_fd_sc_mcu7t5v0__xor3_2 A1 A2 A3 Z VDD VNW VPW VSS
.ends

* Black-box entry subcircuit for gf180mcu_fd_sc_mcu7t5v0__fillcap_8 abstract view
.subckt gf180mcu_fd_sc_mcu7t5v0__fillcap_8 VDD VNW VPW VSS
.ends

* Black-box entry subcircuit for gf180mcu_fd_sc_mcu7t5v0__oai21_1 abstract view
.subckt gf180mcu_fd_sc_mcu7t5v0__oai21_1 A1 A2 B ZN VDD VNW VPW VSS
.ends

* Black-box entry subcircuit for gf180mcu_fd_sc_mcu7t5v0__oai211_1 abstract view
.subckt gf180mcu_fd_sc_mcu7t5v0__oai211_1 A1 A2 B C ZN VDD VNW VPW VSS
.ends

* Black-box entry subcircuit for gf180mcu_fd_sc_mcu7t5v0__nand2_1 abstract view
.subckt gf180mcu_fd_sc_mcu7t5v0__nand2_1 A1 A2 ZN VDD VNW VPW VSS
.ends

* Black-box entry subcircuit for gf180mcu_fd_sc_mcu7t5v0__fillcap_32 abstract view
.subckt gf180mcu_fd_sc_mcu7t5v0__fillcap_32 VDD VNW VPW VSS
.ends

* Black-box entry subcircuit for gf180mcu_fd_sc_mcu7t5v0__fill_1 abstract view
.subckt gf180mcu_fd_sc_mcu7t5v0__fill_1 VDD VNW VPW VSS
.ends

* Black-box entry subcircuit for gf180mcu_fd_sc_mcu7t5v0__clkbuf_1 abstract view
.subckt gf180mcu_fd_sc_mcu7t5v0__clkbuf_1 I Z VDD VNW VPW VSS
.ends

* Black-box entry subcircuit for gf180mcu_fd_sc_mcu7t5v0__oai22_1 abstract view
.subckt gf180mcu_fd_sc_mcu7t5v0__oai22_1 A1 A2 B1 B2 ZN VDD VNW VPW VSS
.ends

* Black-box entry subcircuit for gf180mcu_fd_sc_mcu7t5v0__oai21_2 abstract view
.subckt gf180mcu_fd_sc_mcu7t5v0__oai21_2 A1 A2 B ZN VDD VNW VPW VSS
.ends

* Black-box entry subcircuit for gf180mcu_fd_sc_mcu7t5v0__xnor3_1 abstract view
.subckt gf180mcu_fd_sc_mcu7t5v0__xnor3_1 A1 A2 A3 ZN VDD VNW VPW VSS
.ends

* Black-box entry subcircuit for gf180mcu_fd_sc_mcu7t5v0__nor2_1 abstract view
.subckt gf180mcu_fd_sc_mcu7t5v0__nor2_1 A1 A2 ZN VDD VNW VPW VSS
.ends

* Black-box entry subcircuit for gf180mcu_fd_sc_mcu7t5v0__nor2_2 abstract view
.subckt gf180mcu_fd_sc_mcu7t5v0__nor2_2 A1 A2 ZN VDD VNW VPW VSS
.ends

* Black-box entry subcircuit for gf180mcu_fd_sc_mcu7t5v0__or2_1 abstract view
.subckt gf180mcu_fd_sc_mcu7t5v0__or2_1 A1 A2 Z VDD VNW VPW VSS
.ends

* Black-box entry subcircuit for gf180mcu_fd_sc_mcu7t5v0__buf_2 abstract view
.subckt gf180mcu_fd_sc_mcu7t5v0__buf_2 I Z VDD VNW VPW VSS
.ends

* Black-box entry subcircuit for gf180mcu_fd_sc_mcu7t5v0__clkinv_1 abstract view
.subckt gf180mcu_fd_sc_mcu7t5v0__clkinv_1 I ZN VDD VNW VPW VSS
.ends

* Black-box entry subcircuit for gf180mcu_fd_sc_mcu7t5v0__and2_1 abstract view
.subckt gf180mcu_fd_sc_mcu7t5v0__and2_1 A1 A2 Z VDD VNW VPW VSS
.ends

* Black-box entry subcircuit for gf180mcu_fd_sc_mcu7t5v0__aoi21_1 abstract view
.subckt gf180mcu_fd_sc_mcu7t5v0__aoi21_1 A1 A2 B ZN VDD VNW VPW VSS
.ends

* Black-box entry subcircuit for gf180mcu_fd_sc_mcu7t5v0__nand3_2 abstract view
.subckt gf180mcu_fd_sc_mcu7t5v0__nand3_2 A1 A2 A3 ZN VDD VNW VPW VSS
.ends

* Black-box entry subcircuit for gf180mcu_fd_sc_mcu7t5v0__nor2_4 abstract view
.subckt gf180mcu_fd_sc_mcu7t5v0__nor2_4 A1 A2 ZN VDD VNW VPW VSS
.ends

* Black-box entry subcircuit for gf180mcu_fd_sc_mcu7t5v0__oai33_4 abstract view
.subckt gf180mcu_fd_sc_mcu7t5v0__oai33_4 A1 A2 A3 B1 B2 B3 ZN VDD VNW VPW VSS
.ends

* Black-box entry subcircuit for gf180mcu_fd_sc_mcu7t5v0__xnor2_1 abstract view
.subckt gf180mcu_fd_sc_mcu7t5v0__xnor2_1 A1 A2 ZN VDD VNW VPW VSS
.ends

* Black-box entry subcircuit for gf180mcu_fd_sc_mcu7t5v0__buf_12 abstract view
.subckt gf180mcu_fd_sc_mcu7t5v0__buf_12 I Z VDD VNW VPW VSS
.ends

* Black-box entry subcircuit for gf180mcu_fd_sc_mcu7t5v0__inv_1 abstract view
.subckt gf180mcu_fd_sc_mcu7t5v0__inv_1 I ZN VDD VNW VPW VSS
.ends

* Black-box entry subcircuit for gf180mcu_fd_sc_mcu7t5v0__xnor2_2 abstract view
.subckt gf180mcu_fd_sc_mcu7t5v0__xnor2_2 A1 A2 ZN VDD VNW VPW VSS
.ends

* Black-box entry subcircuit for gf180mcu_fd_sc_mcu7t5v0__xor3_1 abstract view
.subckt gf180mcu_fd_sc_mcu7t5v0__xor3_1 A1 A2 A3 Z VDD VNW VPW VSS
.ends

* Black-box entry subcircuit for gf180mcu_fd_sc_mcu7t5v0__aoi22_1 abstract view
.subckt gf180mcu_fd_sc_mcu7t5v0__aoi22_1 A1 A2 B1 B2 ZN VDD VNW VPW VSS
.ends

* Black-box entry subcircuit for gf180mcu_fd_sc_mcu7t5v0__nand3_1 abstract view
.subckt gf180mcu_fd_sc_mcu7t5v0__nand3_1 A1 A2 A3 ZN VDD VNW VPW VSS
.ends

* Black-box entry subcircuit for gf180mcu_fd_sc_mcu7t5v0__aoi21_2 abstract view
.subckt gf180mcu_fd_sc_mcu7t5v0__aoi21_2 A1 A2 B ZN VDD VNW VPW VSS
.ends

* Black-box entry subcircuit for gf180mcu_fd_sc_mcu7t5v0__nand2_4 abstract view
.subckt gf180mcu_fd_sc_mcu7t5v0__nand2_4 A1 A2 ZN VDD VNW VPW VSS
.ends

* Black-box entry subcircuit for gf180mcu_fd_sc_mcu7t5v0__endcap abstract view
.subckt gf180mcu_fd_sc_mcu7t5v0__endcap VDD VSS
.ends

* Black-box entry subcircuit for gf180mcu_fd_sc_mcu7t5v0__and2_2 abstract view
.subckt gf180mcu_fd_sc_mcu7t5v0__and2_2 A1 A2 Z VDD VNW VPW VSS
.ends

* Black-box entry subcircuit for gf180mcu_fd_sc_mcu7t5v0__dffrnq_1 abstract view
.subckt gf180mcu_fd_sc_mcu7t5v0__dffrnq_1 D RN CLK Q VDD VNW VPW VSS
.ends

* Black-box entry subcircuit for gf180mcu_fd_sc_mcu7t5v0__and3_2 abstract view
.subckt gf180mcu_fd_sc_mcu7t5v0__and3_2 A1 A2 A3 Z VDD VNW VPW VSS
.ends

* Black-box entry subcircuit for gf180mcu_fd_sc_mcu7t5v0__mux2_2 abstract view
.subckt gf180mcu_fd_sc_mcu7t5v0__mux2_2 I0 I1 S Z VDD VNW VPW VSS
.ends

* Black-box entry subcircuit for gf180mcu_fd_sc_mcu7t5v0__oai31_4 abstract view
.subckt gf180mcu_fd_sc_mcu7t5v0__oai31_4 A1 A2 A3 B ZN VDD VNW VPW VSS
.ends

* Black-box entry subcircuit for gf180mcu_fd_sc_mcu7t5v0__dffq_1 abstract view
.subckt gf180mcu_fd_sc_mcu7t5v0__dffq_1 D CLK Q VDD VNW VPW VSS
.ends

* Black-box entry subcircuit for gf180mcu_fd_sc_mcu7t5v0__aoi21_4 abstract view
.subckt gf180mcu_fd_sc_mcu7t5v0__aoi21_4 A1 A2 B ZN VDD VNW VPW VSS
.ends

* Black-box entry subcircuit for gf180mcu_fd_sc_mcu7t5v0__fillcap_64 abstract view
.subckt gf180mcu_fd_sc_mcu7t5v0__fillcap_64 VDD VNW VPW VSS
.ends

* Black-box entry subcircuit for gf180mcu_fd_sc_mcu7t5v0__and3_1 abstract view
.subckt gf180mcu_fd_sc_mcu7t5v0__and3_1 A1 A2 A3 Z VDD VNW VPW VSS
.ends

* Black-box entry subcircuit for gf180mcu_fd_sc_mcu7t5v0__dlyc_1 abstract view
.subckt gf180mcu_fd_sc_mcu7t5v0__dlyc_1 I Z VDD VNW VPW VSS
.ends

* Black-box entry subcircuit for gf180mcu_fd_sc_mcu7t5v0__dlyb_1 abstract view
.subckt gf180mcu_fd_sc_mcu7t5v0__dlyb_1 I Z VDD VNW VPW VSS
.ends

* Black-box entry subcircuit for gf180mcu_fd_sc_mcu7t5v0__dffrnq_2 abstract view
.subckt gf180mcu_fd_sc_mcu7t5v0__dffrnq_2 D RN CLK Q VDD VNW VPW VSS
.ends

* Black-box entry subcircuit for gf180mcu_fd_sc_mcu7t5v0__oai211_4 abstract view
.subckt gf180mcu_fd_sc_mcu7t5v0__oai211_4 A1 A2 B C ZN VDD VNW VPW VSS
.ends

* Black-box entry subcircuit for gf180mcu_fd_sc_mcu7t5v0__clkbuf_8 abstract view
.subckt gf180mcu_fd_sc_mcu7t5v0__clkbuf_8 I Z VDD VNW VPW VSS
.ends

* Black-box entry subcircuit for gf180mcu_fd_sc_mcu7t5v0__aoi221_2 abstract view
.subckt gf180mcu_fd_sc_mcu7t5v0__aoi221_2 A1 A2 B1 B2 C ZN VDD VNW VPW VSS
.ends

* Black-box entry subcircuit for gf180mcu_fd_sc_mcu7t5v0__buf_8 abstract view
.subckt gf180mcu_fd_sc_mcu7t5v0__buf_8 I Z VDD VNW VPW VSS
.ends

* Black-box entry subcircuit for gf180mcu_fd_sc_mcu7t5v0__nand4_1 abstract view
.subckt gf180mcu_fd_sc_mcu7t5v0__nand4_1 A1 A2 A3 A4 ZN VDD VNW VPW VSS
.ends

* Black-box entry subcircuit for gf180mcu_fd_sc_mcu7t5v0__oai31_2 abstract view
.subckt gf180mcu_fd_sc_mcu7t5v0__oai31_2 A1 A2 A3 B ZN VDD VNW VPW VSS
.ends

* Black-box entry subcircuit for gf180mcu_fd_sc_mcu7t5v0__clkbuf_16 abstract view
.subckt gf180mcu_fd_sc_mcu7t5v0__clkbuf_16 I Z VDD VNW VPW VSS
.ends

* Black-box entry subcircuit for gf180mcu_fd_sc_mcu7t5v0__xor2_2 abstract view
.subckt gf180mcu_fd_sc_mcu7t5v0__xor2_2 A1 A2 Z VDD VNW VPW VSS
.ends

* Black-box entry subcircuit for gf180mcu_fd_sc_mcu7t5v0__oai31_1 abstract view
.subckt gf180mcu_fd_sc_mcu7t5v0__oai31_1 A1 A2 A3 B ZN VDD VNW VPW VSS
.ends

* Black-box entry subcircuit for gf180mcu_fd_sc_mcu7t5v0__clkbuf_20 abstract view
.subckt gf180mcu_fd_sc_mcu7t5v0__clkbuf_20 I Z VDD VNW VPW VSS
.ends

* Black-box entry subcircuit for gf180mcu_fd_sc_mcu7t5v0__oai211_2 abstract view
.subckt gf180mcu_fd_sc_mcu7t5v0__oai211_2 A1 A2 B C ZN VDD VNW VPW VSS
.ends

* Black-box entry subcircuit for gf180mcu_fd_sc_mcu7t5v0__dlya_2 abstract view
.subckt gf180mcu_fd_sc_mcu7t5v0__dlya_2 I Z VDD VNW VPW VSS
.ends

* Black-box entry subcircuit for gf180mcu_fd_sc_mcu7t5v0__aoi211_4 abstract view
.subckt gf180mcu_fd_sc_mcu7t5v0__aoi211_4 A1 A2 B C ZN VDD VNW VPW VSS
.ends

* Black-box entry subcircuit for gf180mcu_fd_sc_mcu7t5v0__clkinv_2 abstract view
.subckt gf180mcu_fd_sc_mcu7t5v0__clkinv_2 I ZN VDD VNW VPW VSS
.ends

* Black-box entry subcircuit for gf180mcu_fd_sc_mcu7t5v0__buf_16 abstract view
.subckt gf180mcu_fd_sc_mcu7t5v0__buf_16 I Z VDD VNW VPW VSS
.ends

* Black-box entry subcircuit for gf180mcu_fd_sc_mcu7t5v0__nor3_1 abstract view
.subckt gf180mcu_fd_sc_mcu7t5v0__nor3_1 A1 A2 A3 ZN VDD VNW VPW VSS
.ends

* Black-box entry subcircuit for gf180mcu_fd_sc_mcu7t5v0__nor3_2 abstract view
.subckt gf180mcu_fd_sc_mcu7t5v0__nor3_2 A1 A2 A3 ZN VDD VNW VPW VSS
.ends

* Black-box entry subcircuit for gf180mcu_fd_sc_mcu7t5v0__and2_4 abstract view
.subckt gf180mcu_fd_sc_mcu7t5v0__and2_4 A1 A2 Z VDD VNW VPW VSS
.ends

* Black-box entry subcircuit for gf180mcu_fd_sc_mcu7t5v0__clkinv_16 abstract view
.subckt gf180mcu_fd_sc_mcu7t5v0__clkinv_16 I ZN VDD VNW VPW VSS
.ends

* Black-box entry subcircuit for gf180mcu_fd_sc_mcu7t5v0__and4_1 abstract view
.subckt gf180mcu_fd_sc_mcu7t5v0__and4_1 A1 A2 A3 A4 Z VDD VNW VPW VSS
.ends

* Black-box entry subcircuit for gf180mcu_fd_sc_mcu7t5v0__buf_1 abstract view
.subckt gf180mcu_fd_sc_mcu7t5v0__buf_1 I Z VDD VNW VPW VSS
.ends

* Black-box entry subcircuit for gf180mcu_fd_sc_mcu7t5v0__oai221_4 abstract view
.subckt gf180mcu_fd_sc_mcu7t5v0__oai221_4 A1 A2 B1 B2 C ZN VDD VNW VPW VSS
.ends

* Black-box entry subcircuit for gf180mcu_fd_sc_mcu7t5v0__buf_20 abstract view
.subckt gf180mcu_fd_sc_mcu7t5v0__buf_20 I Z VDD VNW VPW VSS
.ends

* Black-box entry subcircuit for gf180mcu_fd_sc_mcu7t5v0__oai21_4 abstract view
.subckt gf180mcu_fd_sc_mcu7t5v0__oai21_4 A1 A2 B ZN VDD VNW VPW VSS
.ends

* Black-box entry subcircuit for gf180mcu_fd_sc_mcu7t5v0__aoi22_2 abstract view
.subckt gf180mcu_fd_sc_mcu7t5v0__aoi22_2 A1 A2 B1 B2 ZN VDD VNW VPW VSS
.ends

* Black-box entry subcircuit for gf180mcu_fd_sc_mcu7t5v0__or2_2 abstract view
.subckt gf180mcu_fd_sc_mcu7t5v0__or2_2 A1 A2 Z VDD VNW VPW VSS
.ends

* Black-box entry subcircuit for gf180mcu_fd_sc_mcu7t5v0__dffrnq_4 abstract view
.subckt gf180mcu_fd_sc_mcu7t5v0__dffrnq_4 D RN CLK Q VDD VNW VPW VSS
.ends

* Black-box entry subcircuit for gf180mcu_fd_sc_mcu7t5v0__xnor3_2 abstract view
.subckt gf180mcu_fd_sc_mcu7t5v0__xnor3_2 A1 A2 A3 ZN VDD VNW VPW VSS
.ends

* Black-box entry subcircuit for gf180mcu_fd_sc_mcu7t5v0__aoi221_4 abstract view
.subckt gf180mcu_fd_sc_mcu7t5v0__aoi221_4 A1 A2 B1 B2 C ZN VDD VNW VPW VSS
.ends

* Black-box entry subcircuit for gf180mcu_fd_sc_mcu7t5v0__or3_4 abstract view
.subckt gf180mcu_fd_sc_mcu7t5v0__or3_4 A1 A2 A3 Z VDD VNW VPW VSS
.ends

* Black-box entry subcircuit for gf180mcu_fd_sc_mcu7t5v0__clkinv_8 abstract view
.subckt gf180mcu_fd_sc_mcu7t5v0__clkinv_8 I ZN VDD VNW VPW VSS
.ends

* Black-box entry subcircuit for gf180mcu_fd_sc_mcu7t5v0__oai22_2 abstract view
.subckt gf180mcu_fd_sc_mcu7t5v0__oai22_2 A1 A2 B1 B2 ZN VDD VNW VPW VSS
.ends

* Black-box entry subcircuit for gf180mcu_fd_sc_mcu7t5v0__oai221_2 abstract view
.subckt gf180mcu_fd_sc_mcu7t5v0__oai221_2 A1 A2 B1 B2 C ZN VDD VNW VPW VSS
.ends

* Black-box entry subcircuit for gf180mcu_fd_sc_mcu7t5v0__oai32_4 abstract view
.subckt gf180mcu_fd_sc_mcu7t5v0__oai32_4 A1 A2 A3 B1 B2 ZN VDD VNW VPW VSS
.ends

* Black-box entry subcircuit for gf180mcu_fd_sc_mcu7t5v0__nor3_4 abstract view
.subckt gf180mcu_fd_sc_mcu7t5v0__nor3_4 A1 A2 A3 ZN VDD VNW VPW VSS
.ends

* Black-box entry subcircuit for gf180mcu_fd_sc_mcu7t5v0__aoi211_1 abstract view
.subckt gf180mcu_fd_sc_mcu7t5v0__aoi211_1 A1 A2 B C ZN VDD VNW VPW VSS
.ends

* Black-box entry subcircuit for gf180mcu_fd_sc_mcu7t5v0__inv_2 abstract view
.subckt gf180mcu_fd_sc_mcu7t5v0__inv_2 I ZN VDD VNW VPW VSS
.ends

* Black-box entry subcircuit for gf180mcu_fd_sc_mcu7t5v0__nand4_4 abstract view
.subckt gf180mcu_fd_sc_mcu7t5v0__nand4_4 A1 A2 A3 A4 ZN VDD VNW VPW VSS
.ends

* Black-box entry subcircuit for gf180mcu_fd_sc_mcu7t5v0__aoi221_1 abstract view
.subckt gf180mcu_fd_sc_mcu7t5v0__aoi221_1 A1 A2 B1 B2 C ZN VDD VNW VPW VSS
.ends

* Black-box entry subcircuit for gf180mcu_fd_sc_mcu7t5v0__aoi22_4 abstract view
.subckt gf180mcu_fd_sc_mcu7t5v0__aoi22_4 A1 A2 B1 B2 ZN VDD VNW VPW VSS
.ends

* Black-box entry subcircuit for gf180mcu_fd_sc_mcu7t5v0__dffq_2 abstract view
.subckt gf180mcu_fd_sc_mcu7t5v0__dffq_2 D CLK Q VDD VNW VPW VSS
.ends

* Black-box entry subcircuit for gf180mcu_fd_sc_mcu7t5v0__or3_1 abstract view
.subckt gf180mcu_fd_sc_mcu7t5v0__or3_1 A1 A2 A3 Z VDD VNW VPW VSS
.ends

* Black-box entry subcircuit for gf180mcu_fd_sc_mcu7t5v0__nor4_4 abstract view
.subckt gf180mcu_fd_sc_mcu7t5v0__nor4_4 A1 A2 A3 A4 ZN VDD VNW VPW VSS
.ends

* Black-box entry subcircuit for gf180mcu_fd_sc_mcu7t5v0__nand3_4 abstract view
.subckt gf180mcu_fd_sc_mcu7t5v0__nand3_4 A1 A2 A3 ZN VDD VNW VPW VSS
.ends

* Black-box entry subcircuit for gf180mcu_fd_sc_mcu7t5v0__clkinv_3 abstract view
.subckt gf180mcu_fd_sc_mcu7t5v0__clkinv_3 I ZN VDD VNW VPW VSS
.ends

* Black-box entry subcircuit for gf180mcu_fd_sc_mcu7t5v0__aoi211_2 abstract view
.subckt gf180mcu_fd_sc_mcu7t5v0__aoi211_2 A1 A2 B C ZN VDD VNW VPW VSS
.ends

* Black-box entry subcircuit for gf180mcu_fd_sc_mcu7t5v0__oai32_2 abstract view
.subckt gf180mcu_fd_sc_mcu7t5v0__oai32_2 A1 A2 A3 B1 B2 ZN VDD VNW VPW VSS
.ends

* Black-box entry subcircuit for gf180mcu_fd_sc_mcu7t5v0__nand4_2 abstract view
.subckt gf180mcu_fd_sc_mcu7t5v0__nand4_2 A1 A2 A3 A4 ZN VDD VNW VPW VSS
.ends

* Black-box entry subcircuit for gf180mcu_fd_sc_mcu7t5v0__or3_2 abstract view
.subckt gf180mcu_fd_sc_mcu7t5v0__or3_2 A1 A2 A3 Z VDD VNW VPW VSS
.ends

* Black-box entry subcircuit for gf180mcu_fd_sc_mcu7t5v0__and4_2 abstract view
.subckt gf180mcu_fd_sc_mcu7t5v0__and4_2 A1 A2 A3 A4 Z VDD VNW VPW VSS
.ends

* Black-box entry subcircuit for gf180mcu_fd_sc_mcu7t5v0__or4_4 abstract view
.subckt gf180mcu_fd_sc_mcu7t5v0__or4_4 A1 A2 A3 A4 Z VDD VNW VPW VSS
.ends

* Black-box entry subcircuit for gf180mcu_fd_sc_mcu7t5v0__dlya_4 abstract view
.subckt gf180mcu_fd_sc_mcu7t5v0__dlya_4 I Z VDD VNW VPW VSS
.ends

* Black-box entry subcircuit for gf180mcu_fd_sc_mcu7t5v0__tiel abstract view
.subckt gf180mcu_fd_sc_mcu7t5v0__tiel ZN VDD VNW VPW VSS
.ends

* Black-box entry subcircuit for gf180mcu_fd_sc_mcu7t5v0__or4_2 abstract view
.subckt gf180mcu_fd_sc_mcu7t5v0__or4_2 A1 A2 A3 A4 Z VDD VNW VPW VSS
.ends

* Black-box entry subcircuit for gf180mcu_fd_sc_mcu7t5v0__or2_4 abstract view
.subckt gf180mcu_fd_sc_mcu7t5v0__or2_4 A1 A2 Z VDD VNW VPW VSS
.ends

* Black-box entry subcircuit for gf180mcu_fd_sc_mcu7t5v0__clkinv_20 abstract view
.subckt gf180mcu_fd_sc_mcu7t5v0__clkinv_20 I ZN VDD VNW VPW VSS
.ends

* Black-box entry subcircuit for gf180mcu_fd_sc_mcu7t5v0__oai22_4 abstract view
.subckt gf180mcu_fd_sc_mcu7t5v0__oai22_4 A1 A2 B1 B2 ZN VDD VNW VPW VSS
.ends

* Black-box entry subcircuit for gf180mcu_fd_sc_mcu7t5v0__oai32_1 abstract view
.subckt gf180mcu_fd_sc_mcu7t5v0__oai32_1 A1 A2 A3 B1 B2 ZN VDD VNW VPW VSS
.ends

* Black-box entry subcircuit for gf180mcu_fd_sc_mcu7t5v0__oai221_1 abstract view
.subckt gf180mcu_fd_sc_mcu7t5v0__oai221_1 A1 A2 B1 B2 C ZN VDD VNW VPW VSS
.ends

* Black-box entry subcircuit for gf180mcu_fd_sc_mcu7t5v0__buf_4 abstract view
.subckt gf180mcu_fd_sc_mcu7t5v0__buf_4 I Z VDD VNW VPW VSS
.ends

* Black-box entry subcircuit for gf180mcu_fd_sc_mcu7t5v0__oai222_4 abstract view
.subckt gf180mcu_fd_sc_mcu7t5v0__oai222_4 A1 A2 B1 B2 C1 C2 ZN VDD VNW VPW VSS
.ends

* Black-box entry subcircuit for gf180mcu_fd_sc_mcu7t5v0__clkbuf_2 abstract view
.subckt gf180mcu_fd_sc_mcu7t5v0__clkbuf_2 I Z VDD VNW VPW VSS
.ends

* Black-box entry subcircuit for gf180mcu_fd_sc_mcu7t5v0__buf_3 abstract view
.subckt gf180mcu_fd_sc_mcu7t5v0__buf_3 I Z VDD VNW VPW VSS
.ends

* Black-box entry subcircuit for gf180mcu_fd_sc_mcu7t5v0__clkbuf_3 abstract view
.subckt gf180mcu_fd_sc_mcu7t5v0__clkbuf_3 I Z VDD VNW VPW VSS
.ends

* Black-box entry subcircuit for gf180mcu_fd_sc_mcu7t5v0__dlya_1 abstract view
.subckt gf180mcu_fd_sc_mcu7t5v0__dlya_1 I Z VDD VNW VPW VSS
.ends

.subckt DDS_Module Cos_Out[0] Cos_Out[10] Cos_Out[11] Cos_Out[12] Cos_Out[13] Cos_Out[14]
+ Cos_Out[15] Cos_Out[1] Cos_Out[2] Cos_Out[3] Cos_Out[4] Cos_Out[5] Cos_Out[6] Cos_Out[7]
+ Cos_Out[8] Cos_Out[9] Enable FreqPhase[0] FreqPhase[10] FreqPhase[11] FreqPhase[12]
+ FreqPhase[13] FreqPhase[14] FreqPhase[15] FreqPhase[1] FreqPhase[2] FreqPhase[3]
+ FreqPhase[4] FreqPhase[5] FreqPhase[6] FreqPhase[7] FreqPhase[8] FreqPhase[9] LoadF
+ LoadP clk io_oeb[0] io_oeb[10] io_oeb[11] io_oeb[12] io_oeb[15] io_oeb[1] io_oeb[2]
+ io_oeb[3] io_oeb[4] io_oeb[5] io_oeb[6] io_oeb[7] io_oeb[8] io_oeb[9] rst vdd vss
+ io_oeb[14] io_oeb[13]
XFILLER_0_20_1032 vdd vdd vss vss gf180mcu_fd_sc_mcu7t5v0__fillcap_4
XFILLER_0_94_66 vdd vdd vss vss gf180mcu_fd_sc_mcu7t5v0__fillcap_4
X_06883_ _05420_ _05680_ _05691_ vdd vdd vss vss gf180mcu_fd_sc_mcu7t5v0__nand2_2
X_09671_ _02553_ _02557_ _02558_ vdd vdd vss vss gf180mcu_fd_sc_mcu7t5v0__xor2_1
XFILLER_0_27_60 vdd vdd vss vss gf180mcu_fd_sc_mcu7t5v0__fill_2
XFILLER_0_118_73 vdd vdd vss vss gf180mcu_fd_sc_mcu7t5v0__fillcap_16
XFILLER_0_20_1087 vdd vdd vss vss gf180mcu_fd_sc_mcu7t5v0__fillcap_4
XANTENNA__07534__A1 _06232_ vdd vdd vss vss gf180mcu_fd_sc_mcu7t5v0__antenna
XTAP_TAPCELL_ROW_38_924 vdd vss gf180mcu_fd_sc_mcu7t5v0__filltie
X_08622_ _00428_ _01508_ _01520_ _01521_ vdd vdd vss vss gf180mcu_fd_sc_mcu7t5v0__xor3_2
XFILLER_0_49_303 vdd vdd vss vss gf180mcu_fd_sc_mcu7t5v0__fillcap_8
X_08553_ _01389_ _01417_ _01451_ _01452_ vdd vdd vss vss gf180mcu_fd_sc_mcu7t5v0__oai21_1
XANTENNA__09287__A1 _00373_ vdd vdd vss vss gf180mcu_fd_sc_mcu7t5v0__antenna
X_07504_ _05431_ _06779_ _00455_ _05658_ _00508_ vdd vdd vss vss gf180mcu_fd_sc_mcu7t5v0__oai211_1
XANTENNA__11094__A1 net86 vdd vdd vss vss gf180mcu_fd_sc_mcu7t5v0__antenna
X_08484_ _00385_ net156 _01384_ vdd vdd vss vss gf180mcu_fd_sc_mcu7t5v0__nand2_1
XANTENNA__11094__B2 net83 vdd vdd vss vss gf180mcu_fd_sc_mcu7t5v0__antenna
XANTENNA__07837__A2 _00382_ vdd vdd vss vss gf180mcu_fd_sc_mcu7t5v0__antenna
XFILLER_0_9_422 vdd vdd vss vss gf180mcu_fd_sc_mcu7t5v0__fillcap_4
XFILLER_0_65_829 vdd vdd vss vss gf180mcu_fd_sc_mcu7t5v0__fill_2
XFILLER_0_64_317 vdd vdd vss vss gf180mcu_fd_sc_mcu7t5v0__fill_2
X_07435_ _05409_ _05420_ _00451_ vdd vdd vss vss gf180mcu_fd_sc_mcu7t5v0__nand2_1
XANTENNA__09039__A1 net60 vdd vdd vss vss gf180mcu_fd_sc_mcu7t5v0__antenna
XFILLER_0_119_246 vdd vdd vss vss gf180mcu_fd_sc_mcu7t5v0__fillcap_32
XFILLER_0_58_892 vdd vdd vss vss gf180mcu_fd_sc_mcu7t5v0__fill_2
XFILLER_0_45_520 vdd vdd vss vss gf180mcu_fd_sc_mcu7t5v0__fill_1
XFILLER_0_91_125 vdd vdd vss vss gf180mcu_fd_sc_mcu7t5v0__fill_1
XFILLER_0_107_419 vdd vdd vss vss gf180mcu_fd_sc_mcu7t5v0__fill_1
XFILLER_0_18_767 vdd vdd vss vss gf180mcu_fd_sc_mcu7t5v0__fill_2
X_07366_ _00403_ _00073_ vdd vdd vss vss gf180mcu_fd_sc_mcu7t5v0__clkbuf_1
XFILLER_0_33_726 vdd vdd vss vss gf180mcu_fd_sc_mcu7t5v0__fillcap_8
X_09105_ _00373_ _06672_ _01998_ vdd vdd vss vss gf180mcu_fd_sc_mcu7t5v0__nand2_1
XTAP_TAPCELL_ROW_118_2159 vdd vss gf180mcu_fd_sc_mcu7t5v0__filltie
X_07297_ _05387_ _00346_ _00349_ _00350_ _00057_ vdd vdd vss vss gf180mcu_fd_sc_mcu7t5v0__oai22_1
XFILLER_0_131_912 vdd vdd vss vss gf180mcu_fd_sc_mcu7t5v0__fill_2
XFILLER_0_33_759 vdd vdd vss vss gf180mcu_fd_sc_mcu7t5v0__fillcap_8
X_09036_ _01852_ _01928_ _01929_ _01930_ vdd vdd vss vss gf180mcu_fd_sc_mcu7t5v0__oai21_1
XFILLER_0_4_171 vdd vdd vss vss gf180mcu_fd_sc_mcu7t5v0__fillcap_4
XFILLER_0_115_496 vdd vdd vss vss gf180mcu_fd_sc_mcu7t5v0__fillcap_4
XFILLER_0_142_282 vdd vdd vss vss gf180mcu_fd_sc_mcu7t5v0__fill_1
XFILLER_0_102_113 vdd vdd vss vss gf180mcu_fd_sc_mcu7t5v0__fill_1
XFILLER_0_14_995 vdd vdd vss vss gf180mcu_fd_sc_mcu7t5v0__fill_2
XFILLER_0_131_978 vdd vdd vss vss gf180mcu_fd_sc_mcu7t5v0__fill_2
XFILLER_0_41_792 vdd vdd vss vss gf180mcu_fd_sc_mcu7t5v0__fill_1
XFILLER_0_40_280 vdd vdd vss vss gf180mcu_fd_sc_mcu7t5v0__fillcap_4
XANTENNA__07494__S _00395_ vdd vdd vss vss gf180mcu_fd_sc_mcu7t5v0__antenna
XFILLER_0_99_1022 vdd vdd vss vss gf180mcu_fd_sc_mcu7t5v0__fill_1
XFILLER_0_111_680 vdd vdd vss vss gf180mcu_fd_sc_mcu7t5v0__fill_2
XANTENNA__09762__A2 _06701_ vdd vdd vss vss gf180mcu_fd_sc_mcu7t5v0__antenna
XFILLER_0_99_1033 vdd vdd vss vss gf180mcu_fd_sc_mcu7t5v0__fill_2
XANTENNA__07507__B _05658_ vdd vdd vss vss gf180mcu_fd_sc_mcu7t5v0__antenna
X_09938_ _02772_ _02821_ _02822_ vdd vdd vss vss gf180mcu_fd_sc_mcu7t5v0__xor2_1
X_09869_ _02749_ _02753_ _02754_ vdd vdd vss vss gf180mcu_fd_sc_mcu7t5v0__xor2_1
XANTENNA__07525__A1 _05658_ vdd vdd vss vss gf180mcu_fd_sc_mcu7t5v0__antenna
X_11900_ _00387_ _01956_ _04743_ vdd vdd vss vss gf180mcu_fd_sc_mcu7t5v0__nand2_1
X_12880_ _00365_ _03558_ _05772_ vdd vdd vss vss gf180mcu_fd_sc_mcu7t5v0__nand2_1
XFILLER_0_96_921 vdd vdd vss vss gf180mcu_fd_sc_mcu7t5v0__fillcap_16
X_11831_ _04651_ _04672_ _04673_ _04674_ vdd vdd vss vss gf180mcu_fd_sc_mcu7t5v0__oai21_2
XANTENNA__09278__A1 _00370_ vdd vdd vss vss gf180mcu_fd_sc_mcu7t5v0__antenna
XFILLER_0_56_807 vdd vdd vss vss gf180mcu_fd_sc_mcu7t5v0__fillcap_16
XFILLER_0_68_667 vdd vdd vss vss gf180mcu_fd_sc_mcu7t5v0__fill_2
XANTENNA__07828__A2 _00373_ vdd vdd vss vss gf180mcu_fd_sc_mcu7t5v0__antenna
X_11762_ _04601_ _04603_ _04604_ _04605_ vdd vdd vss vss gf180mcu_fd_sc_mcu7t5v0__xnor3_1
XFILLER_0_36_1083 vdd vdd vss vss gf180mcu_fd_sc_mcu7t5v0__fill_2
XANTENNA__11624__A3 _01524_ vdd vdd vss vss gf180mcu_fd_sc_mcu7t5v0__antenna
X_13501_ _05822_ _06441_ _06442_ _00280_ vdd vdd vss vss gf180mcu_fd_sc_mcu7t5v0__oai21_1
X_10713_ _03501_ _03504_ _03587_ vdd vdd vss vss gf180mcu_fd_sc_mcu7t5v0__nor2_1
XFILLER_0_95_497 vdd vdd vss vss gf180mcu_fd_sc_mcu7t5v0__fill_2
X_11693_ _04534_ _04535_ _04536_ vdd vdd vss vss gf180mcu_fd_sc_mcu7t5v0__nand2_1
XFILLER_0_153_514 vdd vdd vss vss gf180mcu_fd_sc_mcu7t5v0__fill_1
XFILLER_0_138_588 vdd vdd vss vss gf180mcu_fd_sc_mcu7t5v0__fillcap_4
XFILLER_0_36_531 vdd vdd vss vss gf180mcu_fd_sc_mcu7t5v0__fill_1
XFILLER_0_153_525 vdd vdd vss vss gf180mcu_fd_sc_mcu7t5v0__fillcap_8
XFILLER_0_36_542 vdd vdd vss vss gf180mcu_fd_sc_mcu7t5v0__fill_2
X_13432_ _06367_ _06368_ _06369_ vdd vdd vss vss gf180mcu_fd_sc_mcu7t5v0__nor2_2
X_10644_ _00388_ _00385_ _06744_ _03519_ vdd vdd vss vss gf180mcu_fd_sc_mcu7t5v0__oai21_1
XFILLER_0_36_553 vdd vdd vss vss gf180mcu_fd_sc_mcu7t5v0__fillcap_32
XFILLER_0_64_873 vdd vdd vss vss gf180mcu_fd_sc_mcu7t5v0__fill_2
XFILLER_0_82_169 vdd vdd vss vss gf180mcu_fd_sc_mcu7t5v0__fillcap_4
XANTENNA__11388__A2 _02236_ vdd vdd vss vss gf180mcu_fd_sc_mcu7t5v0__antenna
X_10575_ _03389_ _03390_ _03451_ vdd vdd vss vss gf180mcu_fd_sc_mcu7t5v0__or2_1
XFILLER_0_24_737 vdd vdd vss vss gf180mcu_fd_sc_mcu7t5v0__fillcap_4
XFILLER_0_36_597 vdd vdd vss vss gf180mcu_fd_sc_mcu7t5v0__fill_2
X_13363_ _06216_ _06294_ _06295_ vdd vdd vss vss gf180mcu_fd_sc_mcu7t5v0__xor2_1
Xrebuffer7 DDS_Stage.Block_Cosine.PolyRAM_1.DataMac.datax_argu1\[-15\] net59 vdd vdd
+ vss vss gf180mcu_fd_sc_mcu7t5v0__buf_2
XFILLER_0_23_225 vdd vdd vss vss gf180mcu_fd_sc_mcu7t5v0__fill_2
XFILLER_0_1_1092 vdd vdd vss vss gf180mcu_fd_sc_mcu7t5v0__fillcap_4
XFILLER_0_106_463 vdd vdd vss vss gf180mcu_fd_sc_mcu7t5v0__fillcap_4
XANTENNA__07300__I1 net58 vdd vdd vss vss gf180mcu_fd_sc_mcu7t5v0__antenna
XFILLER_0_122_923 vdd vdd vss vss gf180mcu_fd_sc_mcu7t5v0__fillcap_16
X_12314_ _05146_ _05156_ _05157_ _05158_ vdd vdd vss vss gf180mcu_fd_sc_mcu7t5v0__oai21_2
XFILLER_0_23_269 vdd vdd vss vss gf180mcu_fd_sc_mcu7t5v0__fill_2
XFILLER_0_121_422 vdd vdd vss vss gf180mcu_fd_sc_mcu7t5v0__fillcap_8
X_13294_ _06143_ _06219_ vdd vdd vss vss gf180mcu_fd_sc_mcu7t5v0__clkinv_1
XFILLER_0_146_1071 vdd vdd vss vss gf180mcu_fd_sc_mcu7t5v0__fillcap_8
XTAP_TAPCELL_ROW_58_1239 vdd vss gf180mcu_fd_sc_mcu7t5v0__filltie
X_12245_ _05074_ _05077_ _05088_ vdd vdd vss vss gf180mcu_fd_sc_mcu7t5v0__nand2_1
XFILLER_0_43_1010 vdd vdd vss vss gf180mcu_fd_sc_mcu7t5v0__fill_2
XFILLER_0_122_989 vdd vdd vss vss gf180mcu_fd_sc_mcu7t5v0__fillcap_8
XFILLER_0_48_37 vdd vdd vss vss gf180mcu_fd_sc_mcu7t5v0__fillcap_32
X_12176_ _04397_ _04398_ _05019_ vdd vdd vss vss gf180mcu_fd_sc_mcu7t5v0__or2_1
XANTENNA__10899__A1 _05280_ vdd vdd vss vss gf180mcu_fd_sc_mcu7t5v0__antenna
XTAP_TAPCELL_ROW_71_1439 vdd vss gf180mcu_fd_sc_mcu7t5v0__filltie
XANTENNA__11560__A2 _01430_ vdd vdd vss vss gf180mcu_fd_sc_mcu7t5v0__antenna
X_11127_ _03915_ _03968_ _03970_ vdd vdd vss vss gf180mcu_fd_sc_mcu7t5v0__and2_1
X_11058_ _00365_ _03018_ _03901_ vdd vdd vss vss gf180mcu_fd_sc_mcu7t5v0__nand2_1
XANTENNA__12104__A4 _01794_ vdd vdd vss vss gf180mcu_fd_sc_mcu7t5v0__antenna
X_10009_ _02808_ _02818_ _02891_ _02892_ vdd vdd vss vss gf180mcu_fd_sc_mcu7t5v0__oai21_2
XFILLER_0_87_943 vdd vdd vss vss gf180mcu_fd_sc_mcu7t5v0__fillcap_8
XFILLER_0_58_111 vdd vdd vss vss gf180mcu_fd_sc_mcu7t5v0__fill_2
XTAP_TAPCELL_ROW_86_1671 vdd vss gf180mcu_fd_sc_mcu7t5v0__filltie
XFILLER_0_87_965 vdd vdd vss vss gf180mcu_fd_sc_mcu7t5v0__fillcap_8
XFILLER_0_50_1003 vdd vdd vss vss gf180mcu_fd_sc_mcu7t5v0__fillcap_4
XFILLER_0_86_464 vdd vdd vss vss gf180mcu_fd_sc_mcu7t5v0__fill_2
XANTENNA__10823__A1 _03401_ vdd vdd vss vss gf180mcu_fd_sc_mcu7t5v0__antenna
XFILLER_0_129_555 vdd vdd vss vss gf180mcu_fd_sc_mcu7t5v0__fillcap_4
XFILLER_0_104_31 vdd vdd vss vss gf180mcu_fd_sc_mcu7t5v0__fillcap_4
XFILLER_0_58_188 vdd vdd vss vss gf180mcu_fd_sc_mcu7t5v0__fill_1
XFILLER_0_74_637 vdd vdd vss vss gf180mcu_fd_sc_mcu7t5v0__fill_2
XFILLER_0_117_706 vdd vdd vss vss gf180mcu_fd_sc_mcu7t5v0__fill_2
XFILLER_0_50_1058 vdd vdd vss vss gf180mcu_fd_sc_mcu7t5v0__fillcap_16
XANTENNA__07579__S _00395_ vdd vdd vss vss gf180mcu_fd_sc_mcu7t5v0__antenna
XFILLER_0_39_391 vdd vdd vss vss gf180mcu_fd_sc_mcu7t5v0__fill_1
XFILLER_0_73_136 vdd vdd vss vss gf180mcu_fd_sc_mcu7t5v0__fillcap_4
X_07220_ _05409_ _06614_ _05658_ _06827_ vdd vdd vss vss gf180mcu_fd_sc_mcu7t5v0__aoi21_1
XFILLER_0_116_205 vdd vdd vss vss gf180mcu_fd_sc_mcu7t5v0__fill_1
XFILLER_0_117_728 vdd vdd vss vss gf180mcu_fd_sc_mcu7t5v0__fillcap_8
XFILLER_0_54_350 vdd vdd vss vss gf180mcu_fd_sc_mcu7t5v0__fillcap_4
X_07151_ _06232_ _06734_ _06768_ _06769_ vdd vdd vss vss gf180mcu_fd_sc_mcu7t5v0__oai21_1
XANTENNA_clkbuf_3_2__f_clk_I clknet_0_clk vdd vdd vss vss gf180mcu_fd_sc_mcu7t5v0__antenna
XFILLER_0_82_692 vdd vdd vss vss gf180mcu_fd_sc_mcu7t5v0__fill_2
XFILLER_0_125_772 vdd vdd vss vss gf180mcu_fd_sc_mcu7t5v0__fillcap_8
XFILLER_0_14_236 vdd vdd vss vss gf180mcu_fd_sc_mcu7t5v0__fillcap_8
XFILLER_0_14_247 vdd vdd vss vss gf180mcu_fd_sc_mcu7t5v0__fillcap_8
XFILLER_0_124_260 vdd vdd vss vss gf180mcu_fd_sc_mcu7t5v0__fill_2
X_07082_ _05822_ _06708_ _06709_ vdd vdd vss vss gf180mcu_fd_sc_mcu7t5v0__nand2_1
XFILLER_0_89_88 vdd vdd vss vss gf180mcu_fd_sc_mcu7t5v0__fill_1
XFILLER_0_112_422 vdd vdd vss vss gf180mcu_fd_sc_mcu7t5v0__fillcap_8
XFILLER_0_113_945 vdd vdd vss vss gf180mcu_fd_sc_mcu7t5v0__fill_2
XANTENNA__12879__A2 _00369_ vdd vdd vss vss gf180mcu_fd_sc_mcu7t5v0__antenna
XFILLER_0_100_628 vdd vdd vss vss gf180mcu_fd_sc_mcu7t5v0__fill_2
XANTENNA__11000__A1 _00397_ vdd vdd vss vss gf180mcu_fd_sc_mcu7t5v0__antenna
XTAP_TAPCELL_ROW_113_2089 vdd vss gf180mcu_fd_sc_mcu7t5v0__filltie
XFILLER_0_1_174 vdd vdd vss vss gf180mcu_fd_sc_mcu7t5v0__fillcap_4
XANTENNA__09744__A2 _06701_ vdd vdd vss vss gf180mcu_fd_sc_mcu7t5v0__antenna
XFILLER_0_121_1019 vdd vdd vss vss gf180mcu_fd_sc_mcu7t5v0__fillcap_16
XANTENNA__11551__A2 _01693_ vdd vdd vss vss gf180mcu_fd_sc_mcu7t5v0__antenna
XFILLER_0_129_72 vdd vdd vss vss gf180mcu_fd_sc_mcu7t5v0__fill_2
X_07984_ _00883_ _00884_ _00886_ vdd vdd vss vss gf180mcu_fd_sc_mcu7t5v0__nand2_1
X_09723_ _00355_ _06742_ _02609_ vdd vdd vss vss gf180mcu_fd_sc_mcu7t5v0__nand2_1
X_06935_ _06232_ _05875_ _06243_ _06254_ vdd vdd vss vss gf180mcu_fd_sc_mcu7t5v0__nand3_2
XANTENNA__12500__A1 _05326_ vdd vdd vss vss gf180mcu_fd_sc_mcu7t5v0__antenna
X_09654_ _02459_ _02463_ _02541_ vdd vdd vss vss gf180mcu_fd_sc_mcu7t5v0__nand2_1
X_06866_ _05420_ _05496_ _05507_ vdd vdd vss vss gf180mcu_fd_sc_mcu7t5v0__nor2_4
XFILLER_0_97_718 vdd vdd vss vss gf180mcu_fd_sc_mcu7t5v0__fill_2
XTAP_TAPCELL_ROW_2_368 vdd vss gf180mcu_fd_sc_mcu7t5v0__filltie
X_08605_ _01450_ _01452_ _01503_ _01504_ vdd vdd vss vss gf180mcu_fd_sc_mcu7t5v0__xnor3_1
XFILLER_0_49_100 vdd vdd vss vss gf180mcu_fd_sc_mcu7t5v0__fillcap_16
X_09585_ _02372_ _02373_ _02472_ _02473_ vdd vdd vss vss gf180mcu_fd_sc_mcu7t5v0__oai21_1