*SPEF "ieee 1481-1999"
*DESIGN "user_project_wrapper"
*DATE "11:11:11 Fri 11 11, 1111"
*VENDOR "OpenRCX"
*PROGRAM "Parallel Extraction"
*VERSION "1.0"
*DESIGN_FLOW "NAME_SCOPE LOCAL" "PIN_CAP NONE"
*DIVIDER /
*DELIMITER :
*BUS_DELIMITER []
*T_UNIT 1 NS
*C_UNIT 1 PF
*R_UNIT 1 OHM
*L_UNIT 1 HENRY

*NAME_MAP
*1 io_in[0]
*2 io_in[10]
*3 io_in[11]
*4 io_in[12]
*5 io_in[13]
*6 io_in[14]
*7 io_in[15]
*8 io_in[16]
*9 io_in[17]
*10 io_in[18]
*11 io_in[19]
*12 io_in[1]
*13 io_in[20]
*14 io_in[21]
*15 io_in[22]
*16 io_in[23]
*17 io_in[24]
*18 io_in[25]
*19 io_in[26]
*20 io_in[27]
*21 io_in[28]
*22 io_in[29]
*23 io_in[2]
*24 io_in[30]
*25 io_in[31]
*26 io_in[32]
*27 io_in[33]
*28 io_in[34]
*29 io_in[35]
*30 io_in[36]
*31 io_in[37]
*32 io_in[3]
*33 io_in[4]
*34 io_in[5]
*35 io_in[6]
*36 io_in[7]
*37 io_in[8]
*38 io_in[9]
*39 io_oeb[0]
*40 io_oeb[10]
*41 io_oeb[11]
*42 io_oeb[12]
*43 io_oeb[13]
*44 io_oeb[14]
*45 io_oeb[15]
*46 io_oeb[16]
*47 io_oeb[17]
*48 io_oeb[18]
*49 io_oeb[19]
*50 io_oeb[1]
*51 io_oeb[20]
*52 io_oeb[21]
*53 io_oeb[22]
*54 io_oeb[23]
*55 io_oeb[24]
*56 io_oeb[25]
*57 io_oeb[26]
*58 io_oeb[27]
*59 io_oeb[28]
*60 io_oeb[29]
*61 io_oeb[2]
*62 io_oeb[30]
*63 io_oeb[31]
*64 io_oeb[32]
*65 io_oeb[33]
*66 io_oeb[34]
*67 io_oeb[35]
*68 io_oeb[36]
*69 io_oeb[37]
*70 io_oeb[3]
*71 io_oeb[4]
*72 io_oeb[5]
*73 io_oeb[6]
*74 io_oeb[7]
*75 io_oeb[8]
*76 io_oeb[9]
*77 io_out[0]
*78 io_out[10]
*79 io_out[11]
*80 io_out[12]
*81 io_out[13]
*82 io_out[14]
*83 io_out[15]
*84 io_out[16]
*85 io_out[17]
*86 io_out[18]
*87 io_out[19]
*88 io_out[1]
*89 io_out[20]
*90 io_out[21]
*91 io_out[22]
*92 io_out[23]
*93 io_out[24]
*94 io_out[25]
*95 io_out[26]
*96 io_out[27]
*97 io_out[28]
*98 io_out[29]
*99 io_out[2]
*100 io_out[30]
*101 io_out[31]
*102 io_out[32]
*103 io_out[33]
*104 io_out[34]
*105 io_out[35]
*106 io_out[36]
*107 io_out[37]
*108 io_out[3]
*109 io_out[4]
*110 io_out[5]
*111 io_out[6]
*112 io_out[7]
*113 io_out[8]
*114 io_out[9]
*115 la_data_in[0]
*116 la_data_in[10]
*117 la_data_in[11]
*118 la_data_in[12]
*119 la_data_in[13]
*120 la_data_in[14]
*121 la_data_in[15]
*122 la_data_in[16]
*123 la_data_in[17]
*124 la_data_in[18]
*125 la_data_in[19]
*126 la_data_in[1]
*127 la_data_in[20]
*128 la_data_in[21]
*129 la_data_in[22]
*130 la_data_in[23]
*131 la_data_in[24]
*132 la_data_in[25]
*133 la_data_in[26]
*134 la_data_in[27]
*135 la_data_in[28]
*136 la_data_in[29]
*137 la_data_in[2]
*138 la_data_in[30]
*139 la_data_in[31]
*140 la_data_in[32]
*141 la_data_in[33]
*142 la_data_in[34]
*143 la_data_in[35]
*144 la_data_in[36]
*145 la_data_in[37]
*146 la_data_in[38]
*147 la_data_in[39]
*148 la_data_in[3]
*149 la_data_in[40]
*150 la_data_in[41]
*151 la_data_in[42]
*152 la_data_in[43]
*153 la_data_in[44]
*154 la_data_in[45]
*155 la_data_in[46]
*156 la_data_in[47]
*157 la_data_in[48]
*158 la_data_in[49]
*159 la_data_in[4]
*160 la_data_in[50]
*161 la_data_in[51]
*162 la_data_in[52]
*163 la_data_in[53]
*164 la_data_in[54]
*165 la_data_in[55]
*166 la_data_in[56]
*167 la_data_in[57]
*168 la_data_in[58]
*169 la_data_in[59]
*170 la_data_in[5]
*171 la_data_in[60]
*172 la_data_in[61]
*173 la_data_in[62]
*174 la_data_in[63]
*175 la_data_in[6]
*176 la_data_in[7]
*177 la_data_in[8]
*178 la_data_in[9]
*179 la_data_out[0]
*180 la_data_out[10]
*181 la_data_out[11]
*182 la_data_out[12]
*183 la_data_out[13]
*184 la_data_out[14]
*185 la_data_out[15]
*186 la_data_out[16]
*187 la_data_out[17]
*188 la_data_out[18]
*189 la_data_out[19]
*190 la_data_out[1]
*191 la_data_out[20]
*192 la_data_out[21]
*193 la_data_out[22]
*194 la_data_out[23]
*195 la_data_out[24]
*196 la_data_out[25]
*197 la_data_out[26]
*198 la_data_out[27]
*199 la_data_out[28]
*200 la_data_out[29]
*201 la_data_out[2]
*202 la_data_out[30]
*203 la_data_out[31]
*204 la_data_out[32]
*205 la_data_out[33]
*206 la_data_out[34]
*207 la_data_out[35]
*208 la_data_out[36]
*209 la_data_out[37]
*210 la_data_out[38]
*211 la_data_out[39]
*212 la_data_out[3]
*213 la_data_out[40]
*214 la_data_out[41]
*215 la_data_out[42]
*216 la_data_out[43]
*217 la_data_out[44]
*218 la_data_out[45]
*219 la_data_out[46]
*220 la_data_out[47]
*221 la_data_out[48]
*222 la_data_out[49]
*223 la_data_out[4]
*224 la_data_out[50]
*225 la_data_out[51]
*226 la_data_out[52]
*227 la_data_out[53]
*228 la_data_out[54]
*229 la_data_out[55]
*230 la_data_out[56]
*231 la_data_out[57]
*232 la_data_out[58]
*233 la_data_out[59]
*234 la_data_out[5]
*235 la_data_out[60]
*236 la_data_out[61]
*237 la_data_out[62]
*238 la_data_out[63]
*239 la_data_out[6]
*240 la_data_out[7]
*241 la_data_out[8]
*242 la_data_out[9]
*243 la_oenb[0]
*244 la_oenb[10]
*245 la_oenb[11]
*246 la_oenb[12]
*247 la_oenb[13]
*248 la_oenb[14]
*249 la_oenb[15]
*250 la_oenb[16]
*251 la_oenb[17]
*252 la_oenb[18]
*253 la_oenb[19]
*254 la_oenb[1]
*255 la_oenb[20]
*256 la_oenb[21]
*257 la_oenb[22]
*258 la_oenb[23]
*259 la_oenb[24]
*260 la_oenb[25]
*261 la_oenb[26]
*262 la_oenb[27]
*263 la_oenb[28]
*264 la_oenb[29]
*265 la_oenb[2]
*266 la_oenb[30]
*267 la_oenb[31]
*268 la_oenb[32]
*269 la_oenb[33]
*270 la_oenb[34]
*271 la_oenb[35]
*272 la_oenb[36]
*273 la_oenb[37]
*274 la_oenb[38]
*275 la_oenb[39]
*276 la_oenb[3]
*277 la_oenb[40]
*278 la_oenb[41]
*279 la_oenb[42]
*280 la_oenb[43]
*281 la_oenb[44]
*282 la_oenb[45]
*283 la_oenb[46]
*284 la_oenb[47]
*285 la_oenb[48]
*286 la_oenb[49]
*287 la_oenb[4]
*288 la_oenb[50]
*289 la_oenb[51]
*290 la_oenb[52]
*291 la_oenb[53]
*292 la_oenb[54]
*293 la_oenb[55]
*294 la_oenb[56]
*295 la_oenb[57]
*296 la_oenb[58]
*297 la_oenb[59]
*298 la_oenb[5]
*299 la_oenb[60]
*300 la_oenb[61]
*301 la_oenb[62]
*302 la_oenb[63]
*303 la_oenb[6]
*304 la_oenb[7]
*305 la_oenb[8]
*306 la_oenb[9]
*307 user_clock2
*308 user_irq[0]
*309 user_irq[1]
*310 user_irq[2]
*313 wb_clk_i
*314 wb_rst_i
*315 wbs_ack_o
*316 wbs_adr_i[0]
*317 wbs_adr_i[10]
*318 wbs_adr_i[11]
*319 wbs_adr_i[12]
*320 wbs_adr_i[13]
*321 wbs_adr_i[14]
*322 wbs_adr_i[15]
*323 wbs_adr_i[16]
*324 wbs_adr_i[17]
*325 wbs_adr_i[18]
*326 wbs_adr_i[19]
*327 wbs_adr_i[1]
*328 wbs_adr_i[20]
*329 wbs_adr_i[21]
*330 wbs_adr_i[22]
*331 wbs_adr_i[23]
*332 wbs_adr_i[24]
*333 wbs_adr_i[25]
*334 wbs_adr_i[26]
*335 wbs_adr_i[27]
*336 wbs_adr_i[28]
*337 wbs_adr_i[29]
*338 wbs_adr_i[2]
*339 wbs_adr_i[30]
*340 wbs_adr_i[31]
*341 wbs_adr_i[3]
*342 wbs_adr_i[4]
*343 wbs_adr_i[5]
*344 wbs_adr_i[6]
*345 wbs_adr_i[7]
*346 wbs_adr_i[8]
*347 wbs_adr_i[9]
*348 wbs_cyc_i
*349 wbs_dat_i[0]
*350 wbs_dat_i[10]
*351 wbs_dat_i[11]
*352 wbs_dat_i[12]
*353 wbs_dat_i[13]
*354 wbs_dat_i[14]
*355 wbs_dat_i[15]
*356 wbs_dat_i[16]
*357 wbs_dat_i[17]
*358 wbs_dat_i[18]
*359 wbs_dat_i[19]
*360 wbs_dat_i[1]
*361 wbs_dat_i[20]
*362 wbs_dat_i[21]
*363 wbs_dat_i[22]
*364 wbs_dat_i[23]
*365 wbs_dat_i[24]
*366 wbs_dat_i[25]
*367 wbs_dat_i[26]
*368 wbs_dat_i[27]
*369 wbs_dat_i[28]
*370 wbs_dat_i[29]
*371 wbs_dat_i[2]
*372 wbs_dat_i[30]
*373 wbs_dat_i[31]
*374 wbs_dat_i[3]
*375 wbs_dat_i[4]
*376 wbs_dat_i[5]
*377 wbs_dat_i[6]
*378 wbs_dat_i[7]
*379 wbs_dat_i[8]
*380 wbs_dat_i[9]
*381 wbs_dat_o[0]
*382 wbs_dat_o[10]
*383 wbs_dat_o[11]
*384 wbs_dat_o[12]
*385 wbs_dat_o[13]
*386 wbs_dat_o[14]
*387 wbs_dat_o[15]
*388 wbs_dat_o[16]
*389 wbs_dat_o[17]
*390 wbs_dat_o[18]
*391 wbs_dat_o[19]
*392 wbs_dat_o[1]
*393 wbs_dat_o[20]
*394 wbs_dat_o[21]
*395 wbs_dat_o[22]
*396 wbs_dat_o[23]
*397 wbs_dat_o[24]
*398 wbs_dat_o[25]
*399 wbs_dat_o[26]
*400 wbs_dat_o[27]
*401 wbs_dat_o[28]
*402 wbs_dat_o[29]
*403 wbs_dat_o[2]
*404 wbs_dat_o[30]
*405 wbs_dat_o[31]
*406 wbs_dat_o[3]
*407 wbs_dat_o[4]
*408 wbs_dat_o[5]
*409 wbs_dat_o[6]
*410 wbs_dat_o[7]
*411 wbs_dat_o[8]
*412 wbs_dat_o[9]
*413 wbs_sel_i[0]
*414 wbs_sel_i[1]
*415 wbs_sel_i[2]
*416 wbs_sel_i[3]
*417 wbs_stb_i
*418 wbs_we_i
*419 mprj

*PORTS
io_in[0] I
io_in[10] I
io_in[11] I
io_in[12] I
io_in[13] I
io_in[14] I
io_in[15] I
io_in[16] I
io_in[17] I
io_in[18] I
io_in[19] I
io_in[1] I
io_in[20] I
io_in[21] I
io_in[22] I
io_in[23] I
io_in[24] I
io_in[25] I
io_in[26] I
io_in[27] I
io_in[28] I
io_in[29] I
io_in[2] I
io_in[30] I
io_in[31] I
io_in[32] I
io_in[33] I
io_in[34] I
io_in[35] I
io_in[36] I
io_in[37] I
io_in[3] I
io_in[4] I
io_in[5] I
io_in[6] I
io_in[7] I
io_in[8] I
io_in[9] I
io_oeb[0] O
io_oeb[10] O
io_oeb[11] O
io_oeb[12] O
io_oeb[13] O
io_oeb[14] O
io_oeb[15] O
io_oeb[16] O
io_oeb[17] O
io_oeb[18] O
io_oeb[19] O
io_oeb[1] O
io_oeb[20] O
io_oeb[21] O
io_oeb[22] O
io_oeb[23] O
io_oeb[24] O
io_oeb[25] O
io_oeb[26] O
io_oeb[27] O
io_oeb[28] O
io_oeb[29] O
io_oeb[2] O
io_oeb[30] O
io_oeb[31] O
io_oeb[32] O
io_oeb[33] O
io_oeb[34] O
io_oeb[35] O
io_oeb[36] O
io_oeb[37] O
io_oeb[3] O
io_oeb[4] O
io_oeb[5] O
io_oeb[6] O
io_oeb[7] O
io_oeb[8] O
io_oeb[9] O
io_out[0] O
io_out[10] O
io_out[11] O
io_out[12] O
io_out[13] O
io_out[14] O
io_out[15] O
io_out[16] O
io_out[17] O
io_out[18] O
io_out[19] O
io_out[1] O
io_out[20] O
io_out[21] O
io_out[22] O
io_out[23] O
io_out[24] O
io_out[25] O
io_out[26] O
io_out[27] O
io_out[28] O
io_out[29] O
io_out[2] O
io_out[30] O
io_out[31] O
io_out[32] O
io_out[33] O
io_out[34] O
io_out[35] O
io_out[36] O
io_out[37] O
io_out[3] O
io_out[4] O
io_out[5] O
io_out[6] O
io_out[7] O
io_out[8] O
io_out[9] O
la_data_in[0] I
la_data_in[10] I
la_data_in[11] I
la_data_in[12] I
la_data_in[13] I
la_data_in[14] I
la_data_in[15] I
la_data_in[16] I
la_data_in[17] I
la_data_in[18] I
la_data_in[19] I
la_data_in[1] I
la_data_in[20] I
la_data_in[21] I
la_data_in[22] I
la_data_in[23] I
la_data_in[24] I
la_data_in[25] I
la_data_in[26] I
la_data_in[27] I
la_data_in[28] I
la_data_in[29] I
la_data_in[2] I
la_data_in[30] I
la_data_in[31] I
la_data_in[32] I
la_data_in[33] I
la_data_in[34] I
la_data_in[35] I
la_data_in[36] I
la_data_in[37] I
la_data_in[38] I
la_data_in[39] I
la_data_in[3] I
la_data_in[40] I
la_data_in[41] I
la_data_in[42] I
la_data_in[43] I
la_data_in[44] I
la_data_in[45] I
la_data_in[46] I
la_data_in[47] I
la_data_in[48] I
la_data_in[49] I
la_data_in[4] I
la_data_in[50] I
la_data_in[51] I
la_data_in[52] I
la_data_in[53] I
la_data_in[54] I
la_data_in[55] I
la_data_in[56] I
la_data_in[57] I
la_data_in[58] I
la_data_in[59] I
la_data_in[5] I
la_data_in[60] I
la_data_in[61] I
la_data_in[62] I
la_data_in[63] I
la_data_in[6] I
la_data_in[7] I
la_data_in[8] I
la_data_in[9] I
la_data_out[0] O
la_data_out[10] O
la_data_out[11] O
la_data_out[12] O
la_data_out[13] O
la_data_out[14] O
la_data_out[15] O
la_data_out[16] O
la_data_out[17] O
la_data_out[18] O
la_data_out[19] O
la_data_out[1] O
la_data_out[20] O
la_data_out[21] O
la_data_out[22] O
la_data_out[23] O
la_data_out[24] O
la_data_out[25] O
la_data_out[26] O
la_data_out[27] O
la_data_out[28] O
la_data_out[29] O
la_data_out[2] O
la_data_out[30] O
la_data_out[31] O
la_data_out[32] O
la_data_out[33] O
la_data_out[34] O
la_data_out[35] O
la_data_out[36] O
la_data_out[37] O
la_data_out[38] O
la_data_out[39] O
la_data_out[3] O
la_data_out[40] O
la_data_out[41] O
la_data_out[42] O
la_data_out[43] O
la_data_out[44] O
la_data_out[45] O
la_data_out[46] O
la_data_out[47] O
la_data_out[48] O
la_data_out[49] O
la_data_out[4] O
la_data_out[50] O
la_data_out[51] O
la_data_out[52] O
la_data_out[53] O
la_data_out[54] O
la_data_out[55] O
la_data_out[56] O
la_data_out[57] O
la_data_out[58] O
la_data_out[59] O
la_data_out[5] O
la_data_out[60] O
la_data_out[61] O
la_data_out[62] O
la_data_out[63] O
la_data_out[6] O
la_data_out[7] O
la_data_out[8] O
la_data_out[9] O
la_oenb[0] I
la_oenb[10] I
la_oenb[11] I
la_oenb[12] I
la_oenb[13] I
la_oenb[14] I
la_oenb[15] I
la_oenb[16] I
la_oenb[17] I
la_oenb[18] I
la_oenb[19] I
la_oenb[1] I
la_oenb[20] I
la_oenb[21] I
la_oenb[22] I
la_oenb[23] I
la_oenb[24] I
la_oenb[25] I
la_oenb[26] I
la_oenb[27] I
la_oenb[28] I
la_oenb[29] I
la_oenb[2] I
la_oenb[30] I
la_oenb[31] I
la_oenb[32] I
la_oenb[33] I
la_oenb[34] I
la_oenb[35] I
la_oenb[36] I
la_oenb[37] I
la_oenb[38] I
la_oenb[39] I
la_oenb[3] I
la_oenb[40] I
la_oenb[41] I
la_oenb[42] I
la_oenb[43] I
la_oenb[44] I
la_oenb[45] I
la_oenb[46] I
la_oenb[47] I
la_oenb[48] I
la_oenb[49] I
la_oenb[4] I
la_oenb[50] I
la_oenb[51] I
la_oenb[52] I
la_oenb[53] I
la_oenb[54] I
la_oenb[55] I
la_oenb[56] I
la_oenb[57] I
la_oenb[58] I
la_oenb[59] I
la_oenb[5] I
la_oenb[60] I
la_oenb[61] I
la_oenb[62] I
la_oenb[63] I
la_oenb[6] I
la_oenb[7] I
la_oenb[8] I
la_oenb[9] I
user_clock2 I
user_irq[0] O
user_irq[1] O
user_irq[2] O
wb_clk_i I
wb_rst_i I
wbs_ack_o O
wbs_adr_i[0] I
wbs_adr_i[10] I
wbs_adr_i[11] I
wbs_adr_i[12] I
wbs_adr_i[13] I
wbs_adr_i[14] I
wbs_adr_i[15] I
wbs_adr_i[16] I
wbs_adr_i[17] I
wbs_adr_i[18] I
wbs_adr_i[19] I
wbs_adr_i[1] I
wbs_adr_i[20] I
wbs_adr_i[21] I
wbs_adr_i[22] I
wbs_adr_i[23] I
wbs_adr_i[24] I
wbs_adr_i[25] I
wbs_adr_i[26] I
wbs_adr_i[27] I
wbs_adr_i[28] I
wbs_adr_i[29] I
wbs_adr_i[2] I
wbs_adr_i[30] I
wbs_adr_i[31] I
wbs_adr_i[3] I
wbs_adr_i[4] I
wbs_adr_i[5] I
wbs_adr_i[6] I
wbs_adr_i[7] I
wbs_adr_i[8] I
wbs_adr_i[9] I
wbs_cyc_i I
wbs_dat_i[0] I
wbs_dat_i[10] I
wbs_dat_i[11] I
wbs_dat_i[12] I
wbs_dat_i[13] I
wbs_dat_i[14] I
wbs_dat_i[15] I
wbs_dat_i[16] I
wbs_dat_i[17] I
wbs_dat_i[18] I
wbs_dat_i[19] I
wbs_dat_i[1] I
wbs_dat_i[20] I
wbs_dat_i[21] I
wbs_dat_i[22] I
wbs_dat_i[23] I
wbs_dat_i[24] I
wbs_dat_i[25] I
wbs_dat_i[26] I
wbs_dat_i[27] I
wbs_dat_i[28] I
wbs_dat_i[29] I
wbs_dat_i[2] I
wbs_dat_i[30] I
wbs_dat_i[31] I
wbs_dat_i[3] I
wbs_dat_i[4] I
wbs_dat_i[5] I
wbs_dat_i[6] I
wbs_dat_i[7] I
wbs_dat_i[8] I
wbs_dat_i[9] I
wbs_dat_o[0] O
wbs_dat_o[10] O
wbs_dat_o[11] O
wbs_dat_o[12] O
wbs_dat_o[13] O
wbs_dat_o[14] O
wbs_dat_o[15] O
wbs_dat_o[16] O
wbs_dat_o[17] O
wbs_dat_o[18] O
wbs_dat_o[19] O
wbs_dat_o[1] O
wbs_dat_o[20] O
wbs_dat_o[21] O
wbs_dat_o[22] O
wbs_dat_o[23] O
wbs_dat_o[24] O
wbs_dat_o[25] O
wbs_dat_o[26] O
wbs_dat_o[27] O
wbs_dat_o[28] O
wbs_dat_o[29] O
wbs_dat_o[2] O
wbs_dat_o[30] O
wbs_dat_o[31] O
wbs_dat_o[3] O
wbs_dat_o[4] O
wbs_dat_o[5] O
wbs_dat_o[6] O
wbs_dat_o[7] O
wbs_dat_o[8] O
wbs_dat_o[9] O
wbs_sel_i[0] I
wbs_sel_i[1] I
wbs_sel_i[2] I
wbs_sel_i[3] I
wbs_stb_i I
wbs_we_i I

*D_NET *39 0.190074
*CONN
*P io_oeb[0] O
*I *419:io_oeb[0] O *D DDS_Module
*CAP
1 io_oeb[0] 0.0697383
2 *419:io_oeb[0] 0.000723819
3 *39:11 0.0697383
4 *39:9 0.00415116
5 *39:7 0.00487498
6 io_oeb[0] *119:9 0
7 *39:9 *50:9 0.0074825
8 *39:9 *77:9 0.00744983
9 *39:9 *88:9 0.0241622
10 *39:9 *99:9 0.00175301
*RES
1 *419:io_oeb[0] *39:7 9.554 
2 *39:7 *39:9 93.86 
3 *39:9 *39:11 4.5 
4 *39:11 io_oeb[0] 496.926 
*END

*D_NET *40 0.279103
*CONN
*P io_oeb[10] O
*I *419:io_oeb[10] O *D DDS_Module
*CAP
1 io_oeb[10] 0.0943387
2 *419:io_oeb[10] 0
3 *40:8 0.0943387
4 *40:6 0.0452129
5 *40:4 0.0452129
*RES
1 *419:io_oeb[10] *40:4 4.5 
2 *40:4 *40:6 327.636 
3 *40:6 *40:8 4.5 
4 *40:8 io_oeb[10] 672.638 
*END

*D_NET *41 0.486831
*CONN
*P io_oeb[11] O
*I *419:io_oeb[11] O *D DDS_Module
*CAP
1 io_oeb[11] 0.0950123
2 *419:io_oeb[11] 0.000702688
3 *41:11 0.0950123
4 *41:9 0.0112078
5 *41:7 0.0119105
6 *41:9 *42:9 0.168084
7 *41:9 *76:9 0.104901
*RES
1 *419:io_oeb[11] *41:7 8.642 
2 *41:7 *41:9 403.18 
3 *41:9 *41:11 4.5 
4 *41:11 io_oeb[11] 676.742 
*END

*D_NET *42 0.571653
*CONN
*P io_oeb[12] O
*I *419:io_oeb[12] O *D DDS_Module
*CAP
1 io_oeb[12] 0.0949643
2 *419:io_oeb[12] 0.000668368
3 *42:11 0.0949643
4 *42:9 0.00636202
5 *42:7 0.00703039
6 *42:9 *43:9 0.19958
7 *41:9 *42:9 0.168084
*RES
1 *419:io_oeb[12] *42:7 8.49 
2 *42:7 *42:9 478.876 
3 *42:9 *42:11 4.5 
4 *42:11 io_oeb[12] 676.59 
*END

*D_NET *43 0.634874
*CONN
*P io_oeb[13] O
*I *419:io_oeb[13] O *D DDS_Module
*CAP
1 io_oeb[13] 0.0949163
2 *419:io_oeb[13] 0.000634048
3 *43:11 0.0949163
4 *43:9 0.0065329
5 *43:7 0.00716695
6 *43:9 *44:9 0.231128
7 *42:9 *43:9 0.19958
*RES
1 *419:io_oeb[13] *43:7 8.338 
2 *43:7 *43:9 554.572 
3 *43:9 *43:11 4.5 
4 *43:11 io_oeb[13] 676.438 
*END

*D_NET *44 0.632845
*CONN
*P io_oeb[14] O
*I *419:io_oeb[14] O *D DDS_Module
*CAP
1 io_oeb[14] 0.0948736
2 *419:io_oeb[14] 0.000598015
3 *44:11 0.0948736
4 *44:9 0.0749258
5 *44:7 0.0755238
6 *44:9 *45:9 0.0609219
7 *43:9 *44:9 0.231128
*RES
1 *419:io_oeb[14] *44:7 8.186 
2 *44:7 *44:9 630.268 
3 *44:9 *44:11 4.5 
4 *44:11 io_oeb[14] 676.286 
*END

*D_NET *45 0.540926
*CONN
*P io_oeb[15] O
*I *419:io_oeb[15] O *D DDS_Module
*CAP
1 io_oeb[15] 0.00103387
2 *419:io_oeb[15] 0.000592982
3 *45:13 0.0562724
4 *45:11 0.0552386
5 *45:9 0.0955342
6 *45:7 0.0961272
7 *45:13 *83:13 0.175205
8 *44:9 *45:9 0.0609219
*RES
1 *419:io_oeb[15] *45:7 8.186 
2 *45:7 *45:9 654.74 
3 *45:9 *45:11 4.5 
4 *45:11 *45:13 601.54 
5 *45:13 io_oeb[15] 11.53 
*END

*D_NET *50 0.160152
*CONN
*P io_oeb[1] O
*I *419:io_oeb[1] O *D DDS_Module
*CAP
1 io_oeb[1] 0.0696412
2 *419:io_oeb[1] 0.000778764
3 *50:11 0.0696412
4 *50:9 0.00350337
5 *50:7 0.00428213
6 *50:9 *99:9 0.00482317
7 *39:9 *50:9 0.0074825
*RES
1 *419:io_oeb[1] *50:7 9.858 
2 *50:7 *50:9 47.5 
3 *50:9 *50:11 4.5 
4 *50:11 io_oeb[1] 496.622 
*END

*D_NET *61 0.140872
*CONN
*P io_oeb[2] O
*I *419:io_oeb[2] O *D DDS_Module
*CAP
1 io_oeb[2] 0.000123102
2 *419:io_oeb[2] 0.0703128
3 *61:5 0.0704359
*RES
1 *419:io_oeb[2] *61:5 501.942 
2 *61:5 io_oeb[2] 1.482 
*END

*D_NET *70 0.165779
*CONN
*P io_oeb[3] O
*I *419:io_oeb[3] O *D DDS_Module
*CAP
1 io_oeb[3] 0.0010672
2 *419:io_oeb[3] 0.0693381
3 *70:9 0.00301489
4 *70:7 0.0019477
5 *70:5 0.0693381
6 *70:9 *71:9 0.0159685
7 *70:9 *72:9 0.000615754
8 *70:9 *73:9 0.00101602
9 *70:9 *74:9 0.00347296
*RES
1 *419:io_oeb[3] *70:5 495.102 
2 *70:5 *70:7 4.5 
3 *70:7 *70:9 45.676 
4 *70:9 io_oeb[3] 11.378 
*END

*D_NET *71 0.179064
*CONN
*P io_oeb[4] O
*I *419:io_oeb[4] O *D DDS_Module
*CAP
1 io_oeb[4] 0.00110153
2 *419:io_oeb[4] 0.0693174
3 *71:9 0.00829801
4 *71:7 0.00719648
5 *71:5 0.0693174
6 *71:9 *74:9 0.00786507
7 *70:9 *71:9 0.0159685
*RES
1 *419:io_oeb[4] *71:5 494.95 
2 *71:5 *71:7 4.5 
3 *71:7 *71:9 92.188 
4 *71:9 io_oeb[4] 11.53 
*END

*D_NET *72 0.203024
*CONN
*P io_oeb[5] O
*I *419:io_oeb[5] O *D DDS_Module
*CAP
1 io_oeb[5] 0.000922987
2 *419:io_oeb[5] 0.0694686
3 *72:9 0.0111613
4 *72:7 0.0102384
5 *72:5 0.0694686
6 *72:9 *73:9 0.013743
7 *72:9 *112:9 0.0274056
8 *70:9 *72:9 0.000615754
*RES
1 *419:io_oeb[5] *72:5 495.862 
2 *72:5 *72:7 4.5 
3 *72:7 *72:9 138.852 
4 *72:9 io_oeb[5] 10.618 
*END

*D_NET *73 0.281077
*CONN
*P io_oeb[6] O
*I *419:io_oeb[6] O *D DDS_Module
*CAP
1 io_oeb[6] 0.000977944
2 *419:io_oeb[6] 0.0694273
3 *73:9 0.00177264
4 *73:7 0.000794693
5 *73:5 0.0694273
6 *73:9 *74:9 0.0741374
7 *73:9 *112:9 0.0497802
8 *70:9 *73:9 0.00101602
9 *72:9 *73:9 0.013743
*RES
1 *419:io_oeb[6] *73:5 495.558 
2 *73:5 *73:7 4.5 
3 *73:7 *73:9 185.212 
4 *73:9 io_oeb[6] 10.922 
*END

*D_NET *74 0.303386
*CONN
*P io_oeb[7] O
*I *419:io_oeb[7] O *D DDS_Module
*CAP
1 io_oeb[7] 0.000984899
2 *419:io_oeb[7] 0.0694153
3 *74:9 0.00424145
4 *74:7 0.00325655
5 *74:5 0.0694153
6 *74:5 io_out[3] 0
7 *74:9 *78:9 0.0630875
8 *74:9 *112:9 0.00750968
9 *70:9 *74:9 0.00347296
10 *71:9 *74:9 0.00786507
11 *73:9 *74:9 0.0741374
*RES
1 *419:io_oeb[7] *74:5 495.406 
2 *74:5 *74:7 4.5 
3 *74:7 *74:9 231.724 
4 *74:9 io_oeb[7] 11.074 
*END

*D_NET *75 0.28992
*CONN
*P io_oeb[8] O
*I *419:io_oeb[8] O *D DDS_Module
*CAP
1 io_oeb[8] 0.0951356
2 *419:io_oeb[8] 0.000778169
3 *75:11 0.0951356
4 *75:9 0.0123362
5 *75:7 0.0131144
6 *75:9 *76:9 0.0734195
*RES
1 *419:io_oeb[8] *75:7 8.946 
2 *75:7 *75:9 176.092 
3 *75:9 *75:11 4.5 
4 *75:11 io_oeb[8] 677.046 
*END

*D_NET *76 0.381598
*CONN
*P io_oeb[9] O
*I *419:io_oeb[9] O *D DDS_Module
*CAP
1 io_oeb[9] 0.0950876
2 *419:io_oeb[9] 0.000743849
3 *76:11 0.0950876
4 *76:9 0.00580723
5 *76:7 0.00655108
6 *41:9 *76:9 0.104901
7 *75:9 *76:9 0.0734195
*RES
1 *419:io_oeb[9] *76:7 8.794 
2 *76:7 *76:9 251.788 
3 *76:9 *76:11 4.5 
4 *76:11 io_oeb[9] 676.894 
*END

*D_NET *77 0.223882
*CONN
*P io_out[0] O
*I *419:Cos_Out[0] O *D DDS_Module
*CAP
1 io_out[0] 0.0698213
2 *419:Cos_Out[0] 0.000655179
3 *77:11 0.0698213
4 *77:9 0.0135045
5 *77:7 0.0141596
6 *77:9 *88:9 0.0484704
7 *39:9 *77:9 0.00744983
*RES
1 *419:Cos_Out[0] *77:7 9.25 
2 *77:7 *77:9 170.316 
3 *77:9 *77:11 4.5 
4 *77:11 io_out[0] 497.23 
*END

*D_NET *78 0.345685
*CONN
*P io_out[10] O
*I *419:Cos_Out[10] O *D DDS_Module
*CAP
1 io_out[10] 0.00100554
2 *419:Cos_Out[10] 0.0693724
3 *78:9 0.0119863
4 *78:7 0.0109807
5 *78:5 0.0693724
6 *78:9 *79:9 0.11988
7 *74:9 *78:9 0.0630875
*RES
1 *419:Cos_Out[10] *78:5 495.254 
2 *78:5 *78:7 4.5 
3 *78:7 *78:9 294.956 
4 *78:9 io_out[10] 11.226 
*END

*D_NET *79 0.410023
*CONN
*P io_out[11] O
*I *419:Cos_Out[11] O *D DDS_Module
*CAP
1 io_out[11] 0.00102617
2 *419:Cos_Out[11] 0.0693518
3 *79:9 0.00608907
4 *79:7 0.0050629
5 *79:5 0.0693518
6 *79:9 *80:9 0.139262
7 *78:9 *79:9 0.11988
*RES
1 *419:Cos_Out[11] *79:5 495.102 
2 *79:5 *79:7 4.5 
3 *79:7 *79:9 341.468 
4 *79:9 io_out[11] 11.378 
*END

*D_NET *80 0.342245
*CONN
*P io_out[12] O
*I *419:Cos_Out[12] O *D DDS_Module
*CAP
1 io_out[12] 0.0012482
2 *419:Cos_Out[12] 0.0693311
3 *80:9 0.0321606
4 *80:7 0.0309124
5 *80:5 0.0693311
6 *79:9 *80:9 0.139262
*RES
1 *419:Cos_Out[12] *80:5 494.95 
2 *80:5 *80:7 4.5 
3 *80:7 *80:9 387.98 
4 *80:9 io_out[12] 11.53 
*END

*D_NET *81 0.44366
*CONN
*P io_out[13] O
*I *419:Cos_Out[13] O *D DDS_Module
*CAP
1 io_out[13] 0.0696474
2 *419:Cos_Out[13] 0.000689499
3 *81:11 0.0696474
4 *81:9 0.0159548
5 *81:7 0.0166443
6 *81:9 *82:9 0.178017
7 *81:9 *110:9 0.00168432
8 *81:9 *114:9 0.0913751
*RES
1 *419:Cos_Out[13] *81:7 9.402 
2 *81:7 *81:9 434.492 
3 *81:9 *81:11 4.5 
4 *81:11 io_out[13] 497.078 
*END

*D_NET *82 0.439321
*CONN
*P io_out[14] O
*I *419:Cos_Out[14] O *D DDS_Module
*CAP
1 io_out[14] 0.0696733
2 *419:Cos_Out[14] 0.000655179
3 *82:11 0.0696733
4 *82:9 0.0374207
5 *82:7 0.0380758
6 *82:9 *83:9 0.0458056
7 *81:9 *82:9 0.178017
*RES
1 *419:Cos_Out[14] *82:7 9.25 
2 *82:7 *82:9 481.004 
3 *82:9 *82:11 4.5 
4 *82:11 io_out[14] 497.23 
*END

*D_NET *83 0.437941
*CONN
*P io_out[15] O
*I *419:Cos_Out[15] O *D DDS_Module
*CAP
1 io_out[15] 0.00123485
2 *419:Cos_Out[15] 0.000815915
3 *83:13 0.0355218
4 *83:11 0.0342869
5 *83:9 0.0721278
6 *83:7 0.0729437
7 *45:13 *83:13 0.175205
8 *82:9 *83:9 0.0458056
*RES
1 *419:Cos_Out[15] *83:7 9.25 
2 *83:7 *83:9 494.38 
3 *83:9 *83:11 4.5 
4 *83:11 *83:13 452.428 
5 *83:13 io_out[15] 11.378 
*END

*D_NET *88 0.232546
*CONN
*P io_out[1] O
*I *419:Cos_Out[1] O *D DDS_Module
*CAP
1 io_out[1] 0.0697168
2 *419:Cos_Out[1] 0.000675816
3 *88:11 0.0697168
4 *88:9 0.00102939
5 *88:7 0.00170521
6 *88:9 *99:9 0.0103116
7 *88:9 *108:11 0.00675755
8 *39:9 *88:9 0.0241622
9 *77:9 *88:9 0.0484704
*RES
1 *419:Cos_Out[1] *88:7 9.402 
2 *88:7 *88:9 123.804 
3 *88:9 *88:11 4.5 
4 *88:11 io_out[1] 497.078 
*END

*D_NET *99 0.177164
*CONN
*P io_out[2] O
*I *419:Cos_Out[2] O *D DDS_Module
*CAP
1 io_out[2] 0.0696198
2 *419:Cos_Out[2] 0.000730774
3 *99:11 0.0696198
4 *99:9 0.00490702
5 *99:7 0.0056378
6 *99:9 *108:11 0.00976081
7 *39:9 *99:9 0.00175301
8 *50:9 *99:9 0.00482317
9 *88:9 *99:9 0.0103116
*RES
1 *419:Cos_Out[2] *99:7 9.706 
2 *99:7 *99:9 77.292 
3 *99:9 *99:11 4.5 
4 *99:11 io_out[2] 496.774 
*END

*D_NET *108 0.160413
*CONN
*P io_out[3] O
*I *419:Cos_Out[3] O *D DDS_Module
*CAP
1 io_out[3] 0.0696951
2 *419:Cos_Out[3] 0.00225217
3 *108:11 0.0719473
4 *74:5 io_out[3] 0
5 *88:9 *108:11 0.00675755
6 *99:9 *108:11 0.00976081
*RES
1 *419:Cos_Out[3] *108:11 44.834 
2 *108:11 io_out[3] 496.926 
*END

*D_NET *109 0.147705
*CONN
*P io_out[4] O
*I *419:Cos_Out[4] O *D DDS_Module
*CAP
1 io_out[4] 0.0697158
2 *419:Cos_Out[4] 0.00224324
3 *109:11 0.071959
4 io_out[4] *111:7 0
5 *109:11 *110:9 0.00360533
6 *109:11 *111:9 0.00018209
*RES
1 *419:Cos_Out[4] *109:11 29.786 
2 *109:11 io_out[4] 497.078 
*END

*D_NET *110 0.164625
*CONN
*P io_out[5] O
*I *419:Cos_Out[5] O *D DDS_Module
*CAP
1 io_out[5] 0.0698185
2 *419:Cos_Out[5] 0.000655179
3 *110:11 0.0698185
4 *110:9 0.00491667
5 *110:7 0.00557185
6 *110:9 *111:9 0.00142417
7 *110:9 *113:9 0.0010273
8 *110:9 *114:9 0.00610321
9 *81:9 *110:9 0.00168432
10 *109:11 *110:9 0.00360533
*RES
1 *419:Cos_Out[5] *110:7 9.25 
2 *110:7 *110:9 62.396 
3 *110:9 *110:11 4.5 
4 *110:11 io_out[5] 497.23 
*END

*D_NET *111 0.197816
*CONN
*P io_out[6] O
*I *419:Cos_Out[6] O *D DDS_Module
*CAP
1 io_out[6] 0.0696676
2 *419:Cos_Out[6] 0.000765081
3 *111:11 0.0696676
4 *111:9 0.00804488
5 *111:7 0.00880996
6 *111:9 *113:9 0.039255
7 io_out[4] *111:7 0
8 *109:11 *111:9 0.00018209
9 *110:9 *111:9 0.00142417
*RES
1 *419:Cos_Out[6] *111:7 9.858 
2 *111:7 *111:9 108.908 
3 *111:9 *111:11 4.5 
4 *111:11 io_out[6] 496.622 
*END

*D_NET *112 0.238976
*CONN
*P io_out[7] O
*I *419:Cos_Out[7] O *D DDS_Module
*CAP
1 io_out[7] 0.00111952
2 *419:Cos_Out[7] 0.069448
3 *112:9 0.0076923
4 *112:7 0.00657278
5 *112:5 0.069448
6 *72:9 *112:9 0.0274056
7 *73:9 *112:9 0.0497802
8 *74:9 *112:9 0.00750968
*RES
1 *419:Cos_Out[7] *112:5 495.71 
2 *112:5 *112:7 4.5 
3 *112:7 *112:9 155.42 
4 *112:9 io_out[7] 10.77 
*END

*D_NET *113 0.278019
*CONN
*P io_out[8] O
*I *419:Cos_Out[8] O *D DDS_Module
*CAP
1 io_out[8] 0.0696472
2 *419:Cos_Out[8] 0.000730761
3 *113:11 0.0696472
4 *113:9 0.00794581
5 *113:7 0.00867657
6 *113:9 *114:9 0.0810892
7 *110:9 *113:9 0.0010273
8 *111:9 *113:9 0.039255
*RES
1 *419:Cos_Out[8] *113:7 9.706 
2 *113:7 *113:9 201.932 
3 *113:9 *113:11 4.5 
4 *113:11 io_out[8] 496.774 
*END

*D_NET *114 0.328037
*CONN
*P io_out[9] O
*I *419:Cos_Out[9] O *D DDS_Module
*CAP
1 io_out[9] 0.0696678
2 *419:Cos_Out[9] 0.000710124
3 *114:11 0.0696678
4 *114:9 0.00435694
5 *114:7 0.00506707
6 *81:9 *114:9 0.0913751
7 *110:9 *114:9 0.00610321
8 *113:9 *114:9 0.0810892
*RES
1 *419:Cos_Out[9] *114:7 9.554 
2 *114:7 *114:9 248.444 
3 *114:9 *114:11 4.5 
4 *114:11 io_out[9] 496.926 
*END

*D_NET *115 0.0867637
*CONN
*P la_data_in[0] I
*I *419:Enable I *D DDS_Module
*CAP
1 la_data_in[0] 0.00116043
2 *419:Enable 0.0186313
3 *115:11 0.0186313
4 *115:9 0.0159534
5 *115:7 0.0171139
6 *115:9 *118:9 0.0152734
*RES
1 la_data_in[0] *115:7 11.986 
2 *115:7 *115:9 131.708 
3 *115:9 *115:11 4.5 
4 *115:11 *419:Enable 127.87 
*END

*D_NET *116 0.0762552
*CONN
*P la_data_in[10] I
*I *419:FreqPhase[7] I *D DDS_Module
*CAP
1 la_data_in[10] 0.0047828
2 *419:FreqPhase[7] 0.0150312
3 *116:11 0.0150312
4 *116:9 0.0183136
5 *116:7 0.0230964
*RES
1 la_data_in[10] *116:7 37.066 
2 *116:7 *116:9 130.188 
3 *116:9 *116:11 4.5 
4 *116:11 *419:FreqPhase[7] 102.79 
*END

*D_NET *117 0.0762139
*CONN
*P la_data_in[11] I
*I *419:FreqPhase[8] I *D DDS_Module
*CAP
1 la_data_in[11] 0.0057908
2 *419:FreqPhase[8] 0.0140232
3 *117:11 0.0140232
4 *117:9 0.018293
5 *117:7 0.0240838
*RES
1 la_data_in[11] *117:7 43.906 
2 *117:7 *117:9 130.036 
3 *117:9 *117:11 4.5 
4 *117:11 *419:FreqPhase[8] 95.95 
*END

*D_NET *118 0.0863548
*CONN
*P la_data_in[12] I
*I *419:FreqPhase[9] I *D DDS_Module
*CAP
1 la_data_in[12] 0.00112765
2 *419:FreqPhase[9] 0.0186863
3 *118:11 0.0186863
4 *118:9 0.0157267
5 *118:7 0.0168544
6 *115:9 *118:9 0.0152734
*RES
1 la_data_in[12] *118:7 12.138 
2 *118:7 *118:9 129.884 
3 *118:9 *118:11 4.5 
4 *118:11 *419:FreqPhase[9] 127.718 
*END

*D_NET *119 0.0762695
*CONN
*P la_data_in[13] I
*I *419:FreqPhase[10] I *D DDS_Module
*CAP
1 la_data_in[13] 0.00643406
2 *419:FreqPhase[10] 0.0133671
3 *119:11 0.0133671
4 *119:9 0.0183336
5 *119:7 0.0247676
6 io_oeb[0] *119:9 0
*RES
1 la_data_in[13] *119:7 48.466 
2 *119:7 *119:9 129.732 
3 *119:9 *119:11 4.5 
4 *119:11 *419:FreqPhase[10] 91.39 
*END

*D_NET *120 0.076117
*CONN
*P la_data_in[14] I
*I *419:FreqPhase[11] I *D DDS_Module
*CAP
1 la_data_in[14] 0.00710294
2 *419:FreqPhase[11] 0.012711
3 *120:11 0.012711
4 *120:9 0.0182445
5 *120:7 0.0182445
6 *120:5 0.00710294
*RES
1 la_data_in[14] *120:5 48.526 
2 *120:5 *120:7 4.5 
3 *120:7 *120:9 129.58 
4 *120:9 *120:11 4.5 
5 *120:11 *419:FreqPhase[11] 86.83 
*END

*D_NET *121 0.0760757
*CONN
*P la_data_in[15] I
*I *419:FreqPhase[12] I *D DDS_Module
*CAP
1 la_data_in[15] 0.00843419
2 *419:FreqPhase[12] 0.0113798
3 *121:11 0.0113798
4 *121:9 0.0182239
5 *121:7 0.0182239
6 *121:5 0.00843419
*RES
1 la_data_in[15] *121:5 57.646 
2 *121:5 *121:7 4.5 
3 *121:7 *121:9 129.428 
4 *121:9 *121:11 4.5 
5 *121:11 *419:FreqPhase[12] 77.71 
*END

*D_NET *122 0.0760344
*CONN
*P la_data_in[16] I
*I *419:FreqPhase[13] I *D DDS_Module
*CAP
1 la_data_in[16] 0.00876223
2 *419:FreqPhase[13] 0.0110517
3 *122:11 0.0110517
4 *122:9 0.0182032
5 *122:7 0.0182032
6 *122:5 0.00876223
*RES
1 la_data_in[16] *122:5 59.926 
2 *122:5 *122:7 4.5 
3 *122:7 *122:9 129.276 
4 *122:9 *122:11 4.5 
5 *122:11 *419:FreqPhase[13] 75.43 
*END

*D_NET *123 0.0759932
*CONN
*P la_data_in[17] I
*I *419:FreqPhase[14] I *D DDS_Module
*CAP
1 la_data_in[17] 0.00977023
2 *419:FreqPhase[14] 0.0100437
3 *123:11 0.0100437
4 *123:9 0.0181826
5 *123:7 0.0181826
6 *123:5 0.00977023
*RES
1 la_data_in[17] *123:5 66.766 
2 *123:5 *123:7 4.5 
3 *123:7 *123:9 129.124 
4 *123:9 *123:11 4.5 
5 *123:11 *419:FreqPhase[14] 68.59 
*END

*D_NET *124 0.0924842
*CONN
*P la_data_in[18] I
*I *419:FreqPhase[15] I *D DDS_Module
*CAP
1 la_data_in[18] 0.00114345
2 *419:FreqPhase[15] 0.000773045
3 *124:17 0.0146175
4 *124:15 0.0138445
5 *124:13 0.0182466
6 *124:11 0.01939
7 *124:17 *178:9 0.0244691
*RES
1 la_data_in[18] *124:11 16.714 
2 *124:11 *124:13 124.868 
3 *124:13 *124:15 4.5 
4 *124:15 *124:17 127.604 
5 *124:17 *419:FreqPhase[15] 8.794 
*END

*D_NET *126 0.0769687
*CONN
*P la_data_in[1] I
*I *419:LoadP I *D DDS_Module
*CAP
1 la_data_in[1] 0.0108858
2 *419:LoadP 0.00900837
3 *126:11 0.00900837
4 *126:9 0.0185901
5 *126:7 0.0185901
6 *126:5 0.0108858
*RES
1 la_data_in[1] *126:5 73.606 
2 *126:5 *126:7 4.5 
3 *126:7 *126:9 131.556 
4 *126:9 *126:11 4.5 
5 *126:11 *419:LoadP 61.75 
*END

*D_NET *137 0.112509
*CONN
*P la_data_in[2] I
*I *419:LoadF I *D DDS_Module
*CAP
1 la_data_in[2] 0.000936042
2 *419:LoadF 0.0189914
3 *137:11 0.0189914
4 *137:9 0.0122518
5 *137:7 0.0131879
6 *137:9 *148:9 0.0481508
*RES
1 la_data_in[2] *137:7 9.706 
2 *137:7 *137:9 131.404 
3 *137:9 *137:11 4.5 
4 *137:11 *419:LoadF 130.15 
*END

*D_NET *148 0.139103
*CONN
*P la_data_in[3] I
*I *419:FreqPhase[0] I *D DDS_Module
*CAP
1 la_data_in[3] 0.000793136
2 *419:FreqPhase[0] 0.0189666
3 *148:11 0.0189666
4 *148:9 0.00167788