*SPEF "ieee 1481-1999"
*DESIGN "user_project_wrapper"
*DATE "11:11:11 Fri 11 11, 1111"
*VENDOR "OpenRCX"
*PROGRAM "Parallel Extraction"
*VERSION "1.0"
*DESIGN_FLOW "NAME_SCOPE LOCAL" "PIN_CAP NONE"
*DIVIDER /
*DELIMITER :
*BUS_DELIMITER []
*T_UNIT 1 NS
*C_UNIT 1 PF
*R_UNIT 1 OHM
*L_UNIT 1 HENRY

*NAME_MAP
*1 io_in[0]
*2 io_in[10]
*3 io_in[11]
*4 io_in[12]
*5 io_in[13]
*6 io_in[14]
*7 io_in[15]
*8 io_in[16]
*9 io_in[17]
*10 io_in[18]
*11 io_in[19]
*12 io_in[1]
*13 io_in[20]
*14 io_in[21]
*15 io_in[22]
*16 io_in[23]
*17 io_in[24]
*18 io_in[25]
*19 io_in[26]
*20 io_in[27]
*21 io_in[28]
*22 io_in[29]
*23 io_in[2]
*24 io_in[30]
*25 io_in[31]
*26 io_in[32]
*27 io_in[33]
*28 io_in[34]
*29 io_in[35]
*30 io_in[36]
*31 io_in[37]
*32 io_in[3]
*33 io_in[4]
*34 io_in[5]
*35 io_in[6]
*36 io_in[7]
*37 io_in[8]
*38 io_in[9]
*39 io_oeb[0]
*40 io_oeb[10]
*41 io_oeb[11]
*42 io_oeb[12]
*43 io_oeb[13]
*44 io_oeb[14]
*45 io_oeb[15]
*46 io_oeb[16]
*47 io_oeb[17]
*48 io_oeb[18]
*49 io_oeb[19]
*50 io_oeb[1]
*51 io_oeb[20]
*52 io_oeb[21]
*53 io_oeb[22]
*54 io_oeb[23]
*55 io_oeb[24]
*56 io_oeb[25]
*57 io_oeb[26]
*58 io_oeb[27]
*59 io_oeb[28]
*60 io_oeb[29]
*61 io_oeb[2]
*62 io_oeb[30]
*63 io_oeb[31]
*64 io_oeb[32]
*65 io_oeb[33]
*66 io_oeb[34]
*67 io_oeb[35]
*68 io_oeb[36]
*69 io_oeb[37]
*70 io_oeb[3]
*71 io_oeb[4]
*72 io_oeb[5]
*73 io_oeb[6]
*74 io_oeb[7]
*75 io_oeb[8]
*76 io_oeb[9]
*77 io_out[0]
*78 io_out[10]
*79 io_out[11]
*80 io_out[12]
*81 io_out[13]
*82 io_out[14]
*83 io_out[15]
*84 io_out[16]
*85 io_out[17]
*86 io_out[18]
*87 io_out[19]
*88 io_out[1]
*89 io_out[20]
*90 io_out[21]
*91 io_out[22]
*92 io_out[23]
*93 io_out[24]
*94 io_out[25]
*95 io_out[26]
*96 io_out[27]
*97 io_out[28]
*98 io_out[29]
*99 io_out[2]
*100 io_out[30]
*101 io_out[31]
*102 io_out[32]
*103 io_out[33]
*104 io_out[34]
*105 io_out[35]
*106 io_out[36]
*107 io_out[37]
*108 io_out[3]
*109 io_out[4]
*110 io_out[5]
*111 io_out[6]
*112 io_out[7]
*113 io_out[8]
*114 io_out[9]
*115 la_data_in[0]
*116 la_data_in[10]
*117 la_data_in[11]
*118 la_data_in[12]
*119 la_data_in[13]
*120 la_data_in[14]
*121 la_data_in[15]
*122 la_data_in[16]
*123 la_data_in[17]
*124 la_data_in[18]
*125 la_data_in[19]
*126 la_data_in[1]
*127 la_data_in[20]
*128 la_data_in[21]
*129 la_data_in[22]
*130 la_data_in[23]
*131 la_data_in[24]
*132 la_data_in[25]
*133 la_data_in[26]
*134 la_data_in[27]
*135 la_data_in[28]
*136 la_data_in[29]
*137 la_data_in[2]
*138 la_data_in[30]
*139 la_data_in[31]
*140 la_data_in[32]
*141 la_data_in[33]
*142 la_data_in[34]
*143 la_data_in[35]
*144 la_data_in[36]
*145 la_data_in[37]
*146 la_data_in[38]
*147 la_data_in[39]
*148 la_data_in[3]
*149 la_data_in[40]
*150 la_data_in[41]
*151 la_data_in[42]
*152 la_data_in[43]
*153 la_data_in[44]
*154 la_data_in[45]
*155 la_data_in[46]
*156 la_data_in[47]
*157 la_data_in[48]
*158 la_data_in[49]
*159 la_data_in[4]
*160 la_data_in[50]
*161 la_data_in[51]
*162 la_data_in[52]
*163 la_data_in[53]
*164 la_data_in[54]
*165 la_data_in[55]
*166 la_data_in[56]
*167 la_data_in[57]
*168 la_data_in[58]
*169 la_data_in[59]
*170 la_data_in[5]
*171 la_data_in[60]
*172 la_data_in[61]
*173 la_data_in[62]
*174 la_data_in[63]
*175 la_data_in[6]
*176 la_data_in[7]
*177 la_data_in[8]
*178 la_data_in[9]
*179 la_data_out[0]
*180 la_data_out[10]
*181 la_data_out[11]
*182 la_data_out[12]
*183 la_data_out[13]
*184 la_data_out[14]
*185 la_data_out[15]
*186 la_data_out[16]
*187 la_data_out[17]
*188 la_data_out[18]
*189 la_data_out[19]
*190 la_data_out[1]
*191 la_data_out[20]
*192 la_data_out[21]
*193 la_data_out[22]
*194 la_data_out[23]
*195 la_data_out[24]
*196 la_data_out[25]
*197 la_data_out[26]
*198 la_data_out[27]
*199 la_data_out[28]
*200 la_data_out[29]
*201 la_data_out[2]
*202 la_data_out[30]
*203 la_data_out[31]
*204 la_data_out[32]
*205 la_data_out[33]
*206 la_data_out[34]
*207 la_data_out[35]
*208 la_data_out[36]
*209 la_data_out[37]
*210 la_data_out[38]
*211 la_data_out[39]
*212 la_data_out[3]
*213 la_data_out[40]
*214 la_data_out[41]
*215 la_data_out[42]
*216 la_data_out[43]
*217 la_data_out[44]
*218 la_data_out[45]
*219 la_data_out[46]
*220 la_data_out[47]
*221 la_data_out[48]
*222 la_data_out[49]
*223 la_data_out[4]
*224 la_data_out[50]
*225 la_data_out[51]
*226 la_data_out[52]
*227 la_data_out[53]
*228 la_data_out[54]
*229 la_data_out[55]
*230 la_data_out[56]
*231 la_data_out[57]
*232 la_data_out[58]
*233 la_data_out[59]
*234 la_data_out[5]
*235 la_data_out[60]
*236 la_data_out[61]
*237 la_data_out[62]
*238 la_data_out[63]
*239 la_data_out[6]
*240 la_data_out[7]
*241 la_data_out[8]
*242 la_data_out[9]
*243 la_oenb[0]
*244 la_oenb[10]
*245 la_oenb[11]
*246 la_oenb[12]
*247 la_oenb[13]
*248 la_oenb[14]
*249 la_oenb[15]
*250 la_oenb[16]
*251 la_oenb[17]
*252 la_oenb[18]
*253 la_oenb[19]
*254 la_oenb[1]
*255 la_oenb[20]
*256 la_oenb[21]
*257 la_oenb[22]
*258 la_oenb[23]
*259 la_oenb[24]
*260 la_oenb[25]
*261 la_oenb[26]
*262 la_oenb[27]
*263 la_oenb[28]
*264 la_oenb[29]
*265 la_oenb[2]
*266 la_oenb[30]
*267 la_oenb[31]
*268 la_oenb[32]
*269 la_oenb[33]
*270 la_oenb[34]
*271 la_oenb[35]
*272 la_oenb[36]
*273 la_oenb[37]
*274 la_oenb[38]
*275 la_oenb[39]
*276 la_oenb[3]
*277 la_oenb[40]
*278 la_oenb[41]
*279 la_oenb[42]
*280 la_oenb[43]
*281 la_oenb[44]
*282 la_oenb[45]
*283 la_oenb[46]
*284 la_oenb[47]
*285 la_oenb[48]
*286 la_oenb[49]
*287 la_oenb[4]
*288 la_oenb[50]
*289 la_oenb[51]
*290 la_oenb[52]
*291 la_oenb[53]
*292 la_oenb[54]
*293 la_oenb[55]
*294 la_oenb[56]
*295 la_oenb[57]
*296 la_oenb[58]
*297 la_oenb[59]
*298 la_oenb[5]
*299 la_oenb[60]
*300 la_oenb[61]
*301 la_oenb[62]
*302 la_oenb[63]
*303 la_oenb[6]
*304 la_oenb[7]
*305 la_oenb[8]
*306 la_oenb[9]
*307 user_clock2
*308 user_irq[0]
*309 user_irq[1]
*310 user_irq[2]
*313 wb_clk_i
*314 wb_rst_i
*315 wbs_ack_o
*316 wbs_adr_i[0]
*317 wbs_adr_i[10]
*318 wbs_adr_i[11]
*319 wbs_adr_i[12]
*320 wbs_adr_i[13]
*321 wbs_adr_i[14]
*322 wbs_adr_i[15]
*323 wbs_adr_i[16]
*324 wbs_adr_i[17]
*325 wbs_adr_i[18]
*326 wbs_adr_i[19]
*327 wbs_adr_i[1]
*328 wbs_adr_i[20]
*329 wbs_adr_i[21]
*330 wbs_adr_i[22]
*331 wbs_adr_i[23]
*332 wbs_adr_i[24]
*333 wbs_adr_i[25]
*334 wbs_adr_i[26]
*335 wbs_adr_i[27]
*336 wbs_adr_i[28]
*337 wbs_adr_i[29]
*338 wbs_adr_i[2]
*339 wbs_adr_i[30]
*340 wbs_adr_i[31]
*341 wbs_adr_i[3]
*342 wbs_adr_i[4]
*343 wbs_adr_i[5]
*344 wbs_adr_i[6]
*345 wbs_adr_i[7]
*346 wbs_adr_i[8]
*347 wbs_adr_i[9]
*348 wbs_cyc_i
*349 wbs_dat_i[0]
*350 wbs_dat_i[10]
*351 wbs_dat_i[11]
*352 wbs_dat_i[12]
*353 wbs_dat_i[13]
*354 wbs_dat_i[14]
*355 wbs_dat_i[15]
*356 wbs_dat_i[16]
*357 wbs_dat_i[17]
*358 wbs_dat_i[18]
*359 wbs_dat_i[19]
*360 wbs_dat_i[1]
*361 wbs_dat_i[20]
*362 wbs_dat_i[21]
*363 wbs_dat_i[22]
*364 wbs_dat_i[23]
*365 wbs_dat_i[24]
*366 wbs_dat_i[25]
*367 wbs_dat_i[26]
*368 wbs_dat_i[27]
*369 wbs_dat_i[28]
*370 wbs_dat_i[29]
*371 wbs_dat_i[2]
*372 wbs_dat_i[30]
*373 wbs_dat_i[31]
*374 wbs_dat_i[3]
*375 wbs_dat_i[4]
*376 wbs_dat_i[5]
*377 wbs_dat_i[6]
*378 wbs_dat_i[7]
*379 wbs_dat_i[8]
*380 wbs_dat_i[9]
*381 wbs_dat_o[0]
*382 wbs_dat_o[10]
*383 wbs_dat_o[11]
*384 wbs_dat_o[12]
*385 wbs_dat_o[13]
*386 wbs_dat_o[14]
*387 wbs_dat_o[15]
*388 wbs_dat_o[16]
*389 wbs_dat_o[17]
*390 wbs_dat_o[18]
*391 wbs_dat_o[19]
*392 wbs_dat_o[1]
*393 wbs_dat_o[20]
*394 wbs_dat_o[21]
*395 wbs_dat_o[22]
*396 wbs_dat_o[23]
*397 wbs_dat_o[24]
*398 wbs_dat_o[25]
*399 wbs_dat_o[26]
*400 wbs_dat_o[27]
*401 wbs_dat_o[28]
*402 wbs_dat_o[29]
*403 wbs_dat_o[2]
*404 wbs_dat_o[30]
*405 wbs_dat_o[31]
*406 wbs_dat_o[3]
*407 wbs_dat_o[4]
*408 wbs_dat_o[5]
*409 wbs_dat_o[6]
*410 wbs_dat_o[7]
*411 wbs_dat_o[8]
*412 wbs_dat_o[9]
*413 wbs_sel_i[0]
*414 wbs_sel_i[1]
*415 wbs_sel_i[2]
*416 wbs_sel_i[3]
*417 wbs_stb_i
*418 wbs_we_i
*419 mprj

*PORTS
io_in[0] I
io_in[10] I
io_in[11] I
io_in[12] I
io_in[13] I
io_in[14] I
io_in[15] I
io_in[16] I
io_in[17] I
io_in[18] I
io_in[19] I
io_in[1] I
io_in[20] I
io_in[21] I
io_in[22] I
io_in[23] I
io_in[24] I
io_in[25] I
io_in[26] I
io_in[27] I
io_in[28] I
io_in[29] I
io_in[2] I
io_in[30] I
io_in[31] I
io_in[32] I
io_in[33] I
io_in[34] I
io_in[35] I
io_in[36] I
io_in[37] I
io_in[3] I
io_in[4] I
io_in[5] I
io_in[6] I
io_in[7] I
io_in[8] I
io_in[9] I
io_oeb[0] O
io_oeb[10] O
io_oeb[11] O
io_oeb[12] O
io_oeb[13] O
io_oeb[14] O
io_oeb[15] O
io_oeb[16] O
io_oeb[17] O
io_oeb[18] O
io_oeb[19] O
io_oeb[1] O
io_oeb[20] O
io_oeb[21] O
io_oeb[22] O
io_oeb[23] O
io_oeb[24] O
io_oeb[25] O
io_oeb[26] O
io_oeb[27] O
io_oeb[28] O
io_oeb[29] O
io_oeb[2] O
io_oeb[30] O
io_oeb[31] O
io_oeb[32] O
io_oeb[33] O
io_oeb[34] O
io_oeb[35] O
io_oeb[36] O
io_oeb[37] O
io_oeb[3] O
io_oeb[4] O
io_oeb[5] O
io_oeb[6] O
io_oeb[7] O
io_oeb[8] O
io_oeb[9] O
io_out[0] O
io_out[10] O
io_out[11] O
io_out[12] O
io_out[13] O
io_out[14] O
io_out[15] O
io_out[16] O
io_out[17] O
io_out[18] O
io_out[19] O
io_out[1] O
io_out[20] O
io_out[21] O
io_out[22] O
io_out[23] O
io_out[24] O
io_out[25] O
io_out[26] O
io_out[27] O
io_out[28] O
io_out[29] O
io_out[2] O
io_out[30] O
io_out[31] O
io_out[32] O
io_out[33] O
io_out[34] O
io_out[35] O
io_out[36] O
io_out[37] O
io_out[3] O
io_out[4] O
io_out[5] O
io_out[6] O
io_out[7] O
io_out[8] O
io_out[9] O
la_data_in[0] I
la_data_in[10] I
la_data_in[11] I
la_data_in[12] I
la_data_in[13] I
la_data_in[14] I
la_data_in[15] I
la_data_in[16] I
la_data_in[17] I
la_data_in[18] I
la_data_in[19] I
la_data_in[1] I
la_data_in[20] I
la_data_in[21] I
la_data_in[22] I
la_data_in[23] I
la_data_in[24] I
la_data_in[25] I
la_data_in[26] I
la_data_in[27] I
la_data_in[28] I
la_data_in[29] I
la_data_in[2] I
la_data_in[30] I
la_data_in[31] I
la_data_in[32] I
la_data_in[33] I
la_data_in[34] I
la_data_in[35] I
la_data_in[36] I
la_data_in[37] I
la_data_in[38] I
la_data_in[39] I
la_data_in[3] I
la_data_in[40] I
la_data_in[41] I
la_data_in[42] I
la_data_in[43] I
la_data_in[44] I
la_data_in[45] I
la_data_in[46] I
la_data_in[47] I
la_data_in[48] I
la_data_in[49] I
la_data_in[4] I
la_data_in[50] I
la_data_in[51] I
la_data_in[52] I
la_data_in[53] I
la_data_in[54] I
la_data_in[55] I
la_data_in[56] I
la_data_in[57] I
la_data_in[58] I
la_data_in[59] I
la_data_in[5] I
la_data_in[60] I
la_data_in[61] I
la_data_in[62] I
la_data_in[63] I
la_data_in[6] I
la_data_in[7] I
la_data_in[8] I
la_data_in[9] I
la_data_out[0] O
la_data_out[10] O
la_data_out[11] O
la_data_out[12] O
la_data_out[13] O
la_data_out[14] O
la_data_out[15] O
la_data_out[16] O
la_data_out[17] O
la_data_out[18] O
la_data_out[19] O
la_data_out[1] O
la_data_out[20] O
la_data_out[21] O
la_data_out[22] O
la_data_out[23] O
la_data_out[24] O
la_data_out[25] O
la_data_out[26] O
la_data_out[27] O
la_data_out[28] O
la_data_out[29] O
la_data_out[2] O
la_data_out[30] O
la_data_out[31] O
la_data_out[32] O
la_data_out[33] O
la_data_out[34] O
la_data_out[35] O
la_data_out[36] O
la_data_out[37] O
la_data_out[38] O
la_data_out[39] O
la_data_out[3] O
la_data_out[40] O
la_data_out[41] O
la_data_out[42] O
la_data_out[43] O
la_data_out[44] O
la_data_out[45] O
la_data_out[46] O
la_data_out[47] O
la_data_out[48] O
la_data_out[49] O
la_data_out[4] O
la_data_out[50] O
la_data_out[51] O
la_data_out[52] O
la_data_out[53] O
la_data_out[54] O
la_data_out[55] O
la_data_out[56] O
la_data_out[57] O
la_data_out[58] O
la_data_out[59] O
la_data_out[5] O
la_data_out[60] O
la_data_out[61] O
la_data_out[62] O
la_data_out[63] O
la_data_out[6] O
la_data_out[7] O
la_data_out[8] O
la_data_out[9] O
la_oenb[0] I
la_oenb[10] I
la_oenb[11] I
la_oenb[12] I
la_oenb[13] I
la_oenb[14] I
la_oenb[15] I
la_oenb[16] I
la_oenb[17] I
la_oenb[18] I
la_oenb[19] I
la_oenb[1] I
la_oenb[20] I
la_oenb[21] I
la_oenb[22] I
la_oenb[23] I
la_oenb[24] I
la_oenb[25] I
la_oenb[26] I
la_oenb[27] I
la_oenb[28] I
la_oenb[29] I
la_oenb[2] I
la_oenb[30] I
la_oenb[31] I
la_oenb[32] I
la_oenb[33] I
la_oenb[34] I
la_oenb[35] I
la_oenb[36] I
la_oenb[37] I
la_oenb[38] I
la_oenb[39] I
la_oenb[3] I
la_oenb[40] I
la_oenb[41] I
la_oenb[42] I
la_oenb[43] I
la_oenb[44] I
la_oenb[45] I
la_oenb[46] I
la_oenb[47] I
la_oenb[48] I
la_oenb[49] I
la_oenb[4] I
la_oenb[50] I
la_oenb[51] I
la_oenb[52] I
la_oenb[53] I
la_oenb[54] I
la_oenb[55] I
la_oenb[56] I
la_oenb[57] I
la_oenb[58] I
la_oenb[59] I
la_oenb[5] I
la_oenb[60] I
la_oenb[61] I
la_oenb[62] I
la_oenb[63] I
la_oenb[6] I
la_oenb[7] I
la_oenb[8] I
la_oenb[9] I
user_clock2 I
user_irq[0] O
user_irq[1] O
user_irq[2] O
wb_clk_i I
wb_rst_i I
wbs_ack_o O
wbs_adr_i[0] I
wbs_adr_i[10] I
wbs_adr_i[11] I
wbs_adr_i[12] I
wbs_adr_i[13] I
wbs_adr_i[14] I
wbs_adr_i[15] I
wbs_adr_i[16] I
wbs_adr_i[17] I
wbs_adr_i[18] I
wbs_adr_i[19] I
wbs_adr_i[1] I
wbs_adr_i[20] I
wbs_adr_i[21] I
wbs_adr_i[22] I
wbs_adr_i[23] I
wbs_adr_i[24] I
wbs_adr_i[25] I
wbs_adr_i[26] I
wbs_adr_i[27] I
wbs_adr_i[28] I
wbs_adr_i[29] I
wbs_adr_i[2] I
wbs_adr_i[30] I
wbs_adr_i[31] I
wbs_adr_i[3] I
wbs_adr_i[4] I
wbs_adr_i[5] I
wbs_adr_i[6] I
wbs_adr_i[7] I
wbs_adr_i[8] I
wbs_adr_i[9] I
wbs_cyc_i I
wbs_dat_i[0] I
wbs_dat_i[10] I
wbs_dat_i[11] I
wbs_dat_i[12] I
wbs_dat_i[13] I
wbs_dat_i[14] I
wbs_dat_i[15] I
wbs_dat_i[16] I
wbs_dat_i[17] I
wbs_dat_i[18] I
wbs_dat_i[19] I
wbs_dat_i[1] I
wbs_dat_i[20] I
wbs_dat_i[21] I
wbs_dat_i[22] I
wbs_dat_i[23] I
wbs_dat_i[24] I
wbs_dat_i[25] I
wbs_dat_i[26] I
wbs_dat_i[27] I
wbs_dat_i[28] I
wbs_dat_i[29] I
wbs_dat_i[2] I
wbs_dat_i[30] I
wbs_dat_i[31] I
wbs_dat_i[3] I
wbs_dat_i[4] I
wbs_dat_i[5] I
wbs_dat_i[6] I
wbs_dat_i[7] I
wbs_dat_i[8] I
wbs_dat_i[9] I
wbs_dat_o[0] O
wbs_dat_o[10] O
wbs_dat_o[11] O
wbs_dat_o[12] O
wbs_dat_o[13] O
wbs_dat_o[14] O
wbs_dat_o[15] O
wbs_dat_o[16] O
wbs_dat_o[17] O
wbs_dat_o[18] O
wbs_dat_o[19] O
wbs_dat_o[1] O
wbs_dat_o[20] O
wbs_dat_o[21] O
wbs_dat_o[22] O
wbs_dat_o[23] O
wbs_dat_o[24] O
wbs_dat_o[25] O
wbs_dat_o[26] O
wbs_dat_o[27] O
wbs_dat_o[28] O
wbs_dat_o[29] O
wbs_dat_o[2] O
wbs_dat_o[30] O
wbs_dat_o[31] O
wbs_dat_o[3] O
wbs_dat_o[4] O
wbs_dat_o[5] O
wbs_dat_o[6] O
wbs_dat_o[7] O
wbs_dat_o[8] O
wbs_dat_o[9] O
wbs_sel_i[0] I
wbs_sel_i[1] I
wbs_sel_i[2] I
wbs_sel_i[3] I
wbs_stb_i I
wbs_we_i I

*D_NET *39 0.217218
*CONN
*P io_oeb[0] O
*I *419:io_oeb[0] O *D DDS_Module
*CAP
1 io_oeb[0] 0.0774733
2 *419:io_oeb[0] 0.000810834
3 *39:11 0.0774733
4 *39:9 0.0047575
5 *39:7 0.00556833
6 io_oeb[0] *119:9 0
7 *39:9 *50:9 0.00854246
8 *39:9 *77:9 0.00850508
9 *39:9 *88:9 0.0317791
10 *39:9 *99:9 0.00230845
*RES
1 *419:io_oeb[0] *39:7 11.416 
2 *39:7 *39:9 128.44 
3 *39:9 *39:11 4.5 
4 *39:11 io_oeb[0] 680.004 
*END

*D_NET *40 0.309753
*CONN
*P io_oeb[10] O
*I *419:io_oeb[10] O *D DDS_Module
*CAP
1 io_oeb[10] 0.104779
2 *419:io_oeb[10] 0
3 *40:8 0.104779
4 *40:6 0.0500974
5 *40:4 0.0500974
*RES
1 *419:io_oeb[10] *40:4 4.5 
2 *40:4 *40:6 448.344 
3 *40:6 *40:8 4.5 
4 *40:8 io_oeb[10] 920.452 
*END

*D_NET *41 0.597385
*CONN
*P io_oeb[11] O
*I *419:io_oeb[11] O *D DDS_Module
*CAP
1 io_oeb[11] 0.105574
2 *419:io_oeb[11] 0.000838331
3 *41:11 0.105574
4 *41:9 0.0127764
5 *41:7 0.0136147
6 *41:9 *42:9 0.221048
7 *41:9 *76:9 0.137959
*RES
1 *419:io_oeb[11] *41:7 10.168 
2 *41:7 *41:9 551.72 
3 *41:9 *41:11 4.5 
4 *41:11 io_oeb[11] 926.068 
*END

*D_NET *42 0.71126
*CONN
*P io_oeb[12] O
*I *419:io_oeb[12] O *D DDS_Module
*CAP
1 io_oeb[12] 0.105509
2 *419:io_oeb[12] 0.000794208
3 *42:11 0.105509
4 *42:9 0.00756826
5 *42:7 0.00836247
6 *42:9 *43:9 0.26247
7 *41:9 *42:9 0.221048
*RES
1 *419:io_oeb[12] *42:7 9.96 
2 *42:7 *42:9 655.304 
3 *42:9 *42:11 4.5 
4 *42:11 io_oeb[12] 925.86 
*END

*D_NET *43 0.7945
*CONN
*P io_oeb[13] O
*I *419:io_oeb[13] O *D DDS_Module
*CAP
1 io_oeb[13] 0.105443
2 *419:io_oeb[13] 0.000750086
3 *43:11 0.105443
4 *43:9 0.00784177
5 *43:7 0.00859186
6 *43:9 *44:9 0.30396
7 *42:9 *43:9 0.26247
*RES
1 *419:io_oeb[13] *43:7 9.752 
2 *43:7 *43:9 758.888 
3 *43:9 *43:11 4.5 
4 *43:11 io_oeb[13] 925.652 
*END

*D_NET *44 0.762868
*CONN
*P io_oeb[14] O
*I *419:io_oeb[14] O *D DDS_Module
*CAP
1 io_oeb[14] 0.105383
2 *419:io_oeb[14] 0.00070285
3 *44:11 0.105383
4 *44:9 0.0863463
5 *44:7 0.0870492
6 *44:9 *45:9 0.074043
7 *43:9 *44:9 0.30396
*RES
1 *419:io_oeb[14] *44:7 9.544 
2 *44:7 *44:9 862.472 
3 *44:9 *44:11 4.5 
4 *44:11 io_oeb[14] 925.444 
*END

*D_NET *45 0.643784
*CONN
*P io_oeb[15] O
*I *419:io_oeb[15] O *D DDS_Module
*CAP
1 io_oeb[15] 0.00115695
2 *419:io_oeb[15] 0.000693535
3 *45:13 0.0627589
4 *45:11 0.0616019
5 *45:9 0.106209
6 *45:7 0.106903
7 *45:13 *83:13 0.230418
8 *44:9 *45:9 0.074043
*RES
1 *419:io_oeb[15] *45:7 9.544 
2 *45:7 *45:9 895.96 
3 *45:9 *45:11 4.5 
4 *45:11 *45:13 823.16 
5 *45:13 io_oeb[15] 14.12 
*END

*D_NET *50 0.179241
*CONN
*P io_oeb[1] O
*I *419:io_oeb[1] O *D DDS_Module
*CAP
1 io_oeb[1] 0.0773413
2 *419:io_oeb[1] 0.000877543
3 *50:11 0.0773413
4 *50:9 0.00395841
5 *50:7 0.00483595
6 *50:9 *99:9 0.00634408
7 *39:9 *50:9 0.00854246
*RES
1 *419:io_oeb[1] *50:7 11.832 
2 *50:7 *50:9 65 
3 *50:9 *50:11 4.5 
4 *50:11 io_oeb[1] 679.588 
*END

*D_NET *61 0.156403
*CONN
*P io_oeb[2] O
*I *419:io_oeb[2] O *D DDS_Module
*CAP
1 io_oeb[2] 0.000135596
2 *419:io_oeb[2] 0.078066
3 *61:5 0.0782016
*RES
1 *419:io_oeb[2] *61:5 686.868 
2 *61:5 io_oeb[2] 2.028 
*END

*D_NET *70 0.1876
*CONN
*P io_oeb[3] O
*I *419:io_oeb[3] O *D DDS_Module
*CAP
1 io_oeb[3] 0.00123265
2 *419:io_oeb[3] 0.076964
3 *70:9 0.00346196
4 *70:7 0.00222931
5 *70:5 0.076964
6 *70:9 *71:9 0.0210009
7 *70:9 *72:9 0.000663705
8 *70:9 *73:9 0.00111582
9 *70:9 *74:9 0.00396765
*RES
1 *419:io_oeb[3] *70:5 677.508 
2 *70:5 *70:7 4.5 
3 *70:7 *70:9 62.504 
4 *70:9 io_oeb[3] 13.912 
*END

*D_NET *71 0.202412
*CONN
*P io_oeb[4] O
*I *419:io_oeb[4] O *D DDS_Module
*CAP
1 io_oeb[4] 0.00127679
2 *419:io_oeb[4] 0.0769414
3 *71:9 0.00943352
4 *71:7 0.00815673
5 *71:5 0.0769414
6 *71:9 *74:9 0.00866145
7 *70:9 *71:9 0.0210009
*RES
1 *419:io_oeb[4] *71:5 677.3 
2 *71:5 *71:7 4.5 
3 *71:7 *71:9 126.152 
4 *71:9 io_oeb[4] 14.12 
*END

*D_NET *72 0.231757
*CONN
*P io_oeb[5] O
*I *419:io_oeb[5] O *D DDS_Module
*CAP
1 io_oeb[5] 0.0010551
2 *419:io_oeb[5] 0.0771201
3 *72:9 0.0125575
4 *72:7 0.0115024
5 *72:5 0.0771201
6 *72:9 *73:9 0.015694
7 *72:9 *112:9 0.0360445
8 *70:9 *72:9 0.000663705
*RES
1 *419:io_oeb[5] *72:5 678.548 
2 *72:5 *72:7 4.5 
3 *72:7 *72:9 190.008 
4 *72:9 io_oeb[5] 12.872 
*END

*D_NET *73 0.338504
*CONN
*P io_oeb[6] O
*I *419:io_oeb[6] O *D DDS_Module
*CAP
1 io_oeb[6] 0.00112183
2 *419:io_oeb[6] 0.0770749
3 *73:9 0.00228846
4 *73:7 0.00116663
5 *73:5 0.0770749
6 *73:9 *74:9 0.097499
7 *73:9 *112:9 0.0654687
8 *70:9 *73:9 0.00111582
9 *72:9 *73:9 0.015694
*RES
1 *419:io_oeb[6] *73:5 678.132 
2 *73:5 *73:7 4.5 
3 *73:7 *73:9 253.448 
4 *73:9 io_oeb[6] 13.288 
*END

*D_NET *74 0.366031
*CONN
*P io_oeb[7] O
*I *419:io_oeb[7] O *D DDS_Module
*CAP
1 io_oeb[7] 0.00112292
2 *419:io_oeb[7] 0.0770657
3 *74:9 0.00511255
4 *74:7 0.00398963
5 *74:5 0.0770657
6 *74:5 io_out[3] 0
7 *74:9 *78:9 0.0829698
8 *74:9 *112:9 0.00857611
9 *70:9 *74:9 0.00396765
10 *71:9 *74:9 0.00866145
11 *73:9 *74:9 0.097499
*RES
1 *419:io_oeb[7] *74:5 677.924 
2 *74:5 *74:7 4.5 
3 *74:7 *74:9 317.096 
4 *74:9 io_oeb[7] 13.496 
*END

*D_NET *75 0.337439
*CONN
*P io_oeb[8] O
*I *419:io_oeb[8] O *D DDS_Module
*CAP
1 io_oeb[8] 0.105749
2 *419:io_oeb[8] 0.000937333
3 *75:11 0.105749
4 *75:9 0.0137567
5 *75:7 0.014694
6 *75:9 *76:9 0.0965538
*RES
1 *419:io_oeb[8] *75:7 10.584 
2 *75:7 *75:9 240.968 
3 *75:9 *75:11 4.5 
4 *75:11 io_oeb[8] 926.484 
*END

*D_NET *76 0.461061
*CONN
*P io_oeb[9] O
*I *419:io_oeb[9] O *D DDS_Module
*CAP
1 io_oeb[9] 0.105683
2 *419:io_oeb[9] 0.000893211
3 *76:11 0.105683
4 *76:9 0.00669755
5 *76:7 0.00759076
6 *41:9 *76:9 0.137959
7 *75:9 *76:9 0.0965538
*RES
1 *419:io_oeb[9] *76:7 10.376 
2 *76:7 *76:9 344.552 
3 *76:9 *76:11 4.5 
4 *76:11 io_oeb[9] 926.276 
*END

*D_NET *77 0.259202
*CONN
*P io_out[0] O
*I *419:Cos_Out[0] O *D DDS_Module
*CAP
1 io_out[0] 0.0775835
2 *419:Cos_Out[0] 0.000722589
3 *77:11 0.0775835
4 *77:9 0.0151689
5 *77:7 0.0158915
6 *77:9 *88:9 0.0637465
7 *39:9 *77:9 0.00850508
*RES
1 *419:Cos_Out[0] *77:7 11 
2 *77:7 *77:9 233.064 
3 *77:9 *77:11 4.5 
4 *77:11 io_out[0] 680.42 
*END

*D_NET *78 0.421804
*CONN
*P io_out[10] O
*I *419:Cos_Out[10] O *D DDS_Module
*CAP
1 io_out[10] 0.00114553
2 *419:Cos_Out[10] 0.0770082
3 *78:9 0.013581
4 *78:7 0.0124355
5 *78:5 0.0770082
6 *78:9 *79:9 0.157656
7 *74:9 *78:9 0.0829698
*RES
1 *419:Cos_Out[10] *78:5 677.716 
2 *78:5 *78:7 4.5 
3 *78:7 *78:9 403.624 
4 *78:9 io_out[10] 13.704 
*END

*D_NET *79 0.5091
*CONN
*P io_out[11] O
*I *419:Cos_Out[11] O *D DDS_Module
*CAP
1 io_out[11] 0.00116814
2 *419:Cos_Out[11] 0.0769855
3 *79:9 0.00716397
4 *79:7 0.00599584
5 *79:5 0.0769855
6 *79:9 *80:9 0.183145
7 *78:9 *79:9 0.157656
*RES
1 *419:Cos_Out[11] *79:5 677.508 
2 *79:5 *79:7 4.5 
3 *79:7 *79:9 467.272 
4 *79:9 io_out[11] 13.912 
*END

*D_NET *80 0.408898
*CONN
*P io_out[12] O
*I *419:Cos_Out[12] O *D DDS_Module
*CAP
1 io_out[12] 0.00145946
2 *419:Cos_Out[12] 0.0769629
3 *80:9 0.0359134
4 *80:7 0.0344539
5 *80:5 0.0769629
6 *79:9 *80:9 0.183145
*RES
1 *419:Cos_Out[12] *80:5 677.3 
2 *80:5 *80:7 4.5 
3 *80:7 *80:9 530.92 
4 *80:9 io_out[12] 14.12 
*END

*D_NET *81 0.548832
*CONN
*P io_out[13] O
*I *419:Cos_Out[13] O *D DDS_Module
*CAP
1 io_out[13] 0.0773225
2 *419:Cos_Out[13] 0.000766711
3 *81:11 0.0773225
4 *81:9 0.0180779
5 *81:7 0.0188446
6 *81:9 *82:9 0.234114
7 *81:9 *110:9 0.00221433
8 *81:9 *114:9 0.120169
*RES
1 *419:Cos_Out[13] *81:7 11.208 
2 *81:7 *81:9 594.568 
3 *81:9 *81:11 4.5 
4 *81:11 io_out[13] 680.212 
*END

*D_NET *82 0.529356
*CONN
*P io_out[14] O
*I *419:Cos_Out[14] O *D DDS_Module
*CAP
1 io_out[14] 0.0773545
2 *419:Cos_Out[14] 0.000722589
3 *82:11 0.0773545
4 *82:9 0.0417085
5 *82:7 0.0424311
6 *82:9 *83:9 0.055671
7 *81:9 *82:9 0.234114
*RES
1 *419:Cos_Out[14] *82:7 11 
2 *82:7 *82:9 658.216 
3 *82:9 *82:11 4.5 
4 *82:11 io_out[14] 680.42 
*END

*D_NET *83 0.527853
*CONN
*P io_out[15] O
*I *419:Cos_Out[15] O *D DDS_Module
*CAP
1 io_out[15] 0.00143996
2 *419:Cos_Out[15] 0.000939538
3 *83:13 0.0397555
4 *83:11 0.0383156
5 *83:9 0.0801872
6 *83:7 0.0811268
7 *45:13 *83:13 0.230418
8 *82:9 *83:9 0.055671
*RES
1 *419:Cos_Out[15] *83:7 11 
2 *83:7 *83:9 676.52 
3 *83:9 *83:11 4.5 
4 *83:11 *83:13 619.112 
5 *83:13 io_out[15] 13.912 
*END

*D_NET *88 0.27524
*CONN
*P io_out[1] O
*I *419:Cos_Out[1] O *D DDS_Module
*CAP
1 io_out[1] 0.0774307
2 *419:Cos_Out[1] 0.000745196
3 *88:11 0.0774307
4 *88:9 0.00135261
5 *88:7 0.00209781
6 *88:9 *99:9 0.0117715
7 *88:9 *108:11 0.00888587
8 *39:9 *88:9 0.0317791
9 *77:9 *88:9 0.0637465
*RES
1 *419:Cos_Out[1] *88:7 11.208 
2 *88:7 *88:9 169.416 
3 *88:9 *88:11 4.5 
4 *88:11 io_out[1] 680.212 
*END

*D_NET *99 0.200626
*CONN
*P io_out[2] O
*I *419:Cos_Out[2] O *D DDS_Module
*CAP
1 io_out[2] 0.0772988
2 *419:Cos_Out[2] 0.000811924
3 *99:11 0.0772988
4 *99:9 0.00557144
5 *99:7 0.00638336
6 *99:9 *108:11 0.0128376
7 *39:9 *99:9 0.00230845
8 *50:9 *99:9 0.00634408
9 *88:9 *99:9 0.0117715
*RES
1 *419:Cos_Out[2] *99:7 11.624 
2 *99:7 *99:9 105.768 
3 *99:9 *99:11 4.5 
4 *99:11 io_out[2] 679.796 
*END

*D_NET *108 0.181574
*CONN
*P io_out[3] O
*I *419:Cos_Out[3] O *D DDS_Module
*CAP
1 io_out[3] 0.0774074
2 *419:Cos_Out[3] 0.000767802
3 *108:11 0.0791572
4 *108:7 0.00251762
5 *74:5 io_out[3] 0
6 *88:9 *108:11 0.00888587
7 *99:9 *108:11 0.0128376
*RES
1 *419:Cos_Out[3] *108:7 11.416 
2 *108:7 *108:11 46.62 
3 *108:11 io_out[3] 680.004 
*END

*D_NET *109 0.164801
*CONN
*P io_out[4] O
*I *419:Cos_Out[4] O *D DDS_Module
*CAP
1 io_out[4] 0.07743
2 *419:Cos_Out[4] 0.00250098
3 *109:11 0.079931
4 io_out[4] *111:7 0
5 *109:11 *110:9 0.00473936
6 *109:11 *111:9 0.00020009
*RES
1 *419:Cos_Out[4] *109:11 37.444 
2 *109:11 io_out[4] 680.212 
*END

*D_NET *110 0.184311
*CONN
*P io_out[5] O
*I *419:Cos_Out[5] O *D DDS_Module
*CAP
1 io_out[5] 0.0775817
2 *419:Cos_Out[5] 0.000722589
3 *110:11 0.0775817
4 *110:9 0.00554591
5 *110:7 0.0062685
6 *110:9 *111:9 0.00155864
7 *110:9 *113:9 0.00112894
8 *110:9 *114:9 0.00696899
9 *81:9 *110:9 0.00221433
10 *109:11 *110:9 0.00473936
*RES
1 *419:Cos_Out[5] *110:7 11 
2 *110:7 *110:9 85.384 
3 *110:9 *110:11 4.5 
4 *110:11 io_out[5] 680.42 
*END

*D_NET *111 0.227904
*CONN
*P io_out[6] O
*I *419:Cos_Out[6] O *D DDS_Module
*CAP
1 io_out[6] 0.0773837
2 *419:Cos_Out[6] 0.000856028
3 *111:11 0.0773837
4 *111:9 0.00901944
5 *111:7 0.00987547
6 *111:9 *113:9 0.0516273
7 io_out[4] *111:7 0
8 *109:11 *111:9 0.00020009
9 *110:9 *111:9 0.00155864
*RES
1 *419:Cos_Out[6] *111:7 11.832 
2 *111:7 *111:9 149.032 
3 *111:9 *111:11 4.5 
4 *111:11 io_out[6] 679.588 
*END

*D_NET *112 0.281795
*CONN
*P io_out[7] O
*I *419:Cos_Out[7] O *D DDS_Module
*CAP
1 io_out[7] 0.00131241
2 *419:Cos_Out[7] 0.0770975
3 *112:9 0.00875532
4 *112:7 0.0074429
5 *112:5 0.0770975
6 *72:9 *112:9 0.0360445
7 *73:9 *112:9 0.0654687
8 *74:9 *112:9 0.00857611
*RES
1 *419:Cos_Out[7] *112:5 678.34 
2 *112:5 *112:7 4.5 
3 *112:7 *112:9 212.68 
4 *112:9 io_out[7] 13.08 
*END

*D_NET *113 0.333728
*CONN
*P io_out[8] O
*I *419:Cos_Out[8] O *D DDS_Module
*CAP
1 io_out[8] 0.0773418
2 *419:Cos_Out[8] 0.000811905
3 *113:11 0.0773418
4 *113:9 0.00901064
5 *113:7 0.00982254
6 *113:9 *114:9 0.106643
7 *110:9 *113:9 0.00112894
8 *111:9 *113:9 0.0516273
*RES
1 *419:Cos_Out[8] *113:7 11.624 
2 *113:7 *113:9 276.328 
3 *113:9 *113:11 4.5 
4 *113:11 io_out[8] 679.796 
*END

*D_NET *114 0.400303
*CONN
*P io_out[9] O
*I *419:Cos_Out[9] O *D DDS_Module
*CAP
1 io_out[9] 0.0773644
2 *419:Cos_Out[9] 0.000789299
3 *114:11 0.0773644
4 *114:9 0.00510718
5 *114:7 0.00589647
6 *81:9 *114:9 0.120169
7 *110:9 *114:9 0.00696899
8 *113:9 *114:9 0.106643
*RES
1 *419:Cos_Out[9] *114:7 11.416 
2 *114:7 *114:9 339.976 
3 *114:9 *114:11 4.5 
4 *114:11 io_out[9] 680.004 
*END

*D_NET *115 0.0996413
*CONN
*P la_data_in[0] I
*I *419:Enable I *D DDS_Module
*CAP
1 la_data_in[0] 0.00132377
2 *419:Enable 0.0207012
3 *115:11 0.0207012
4 *115:9 0.0177521
5 *115:7 0.0190759
6 *115:9 *118:9 0.020087
*RES
1 la_data_in[0] *115:7 14.744 
2 *115:7 *115:9 180.232 
3 *115:9 *115:11 4.5 
4 *115:11 *419:Enable 174.98 
*END

*D_NET *116 0.0848428
*CONN
*P la_data_in[10] I
*I *419:FreqPhase[7] I *D DDS_Module
*CAP
1 la_data_in[10] 0.0053308
2 *419:FreqPhase[7] 0.0167268
3 *116:11 0.0167268
4 *116:9 0.0203638
5 *116:7 0.0256946
*RES
1 la_data_in[10] *116:7 49.064 
2 *116:7 *116:9 178.152 
3 *116:9 *116:11 4.5 
4 *116:11 *419:FreqPhase[7] 140.66 
*END

*D_NET *117 0.0847976
*CONN
*P la_data_in[11] I
*I *419:FreqPhase[8] I *D DDS_Module
*CAP
1 la_data_in[11] 0.00645273
2 *419:FreqPhase[8] 0.0156048
3 *117:11 0.0156048
4 *117:9 0.0203412
5 *117:7 0.0203412
6 *117:5 0.00645273
*RES
1 la_data_in[11] *117:5 53.924 
2 *117:5 *117:7 4.5 
3 *117:7 *117:9 177.944 
4 *117:9 *117:11 4.5 
5 *117:11 *419:FreqPhase[8] 131.3 
*END

*D_NET *118 0.0992255
*CONN
*P la_data_in[12] I
*I *419:FreqPhase[9] I *D DDS_Module
*CAP
1 la_data_in[12] 0.00125832
2 *419:FreqPhase[9] 0.0207993
3 *118:11 0.0207993
4 *118:9 0.0175117
5 *118:7 0.01877
6 *115:9 *118:9 0.020087
*RES
1 la_data_in[12] *118:7 14.952 
2 *118:7 *118:9 177.736 
3 *118:9 *118:11 4.5 
4 *118:11 *419:FreqPhase[9] 174.772 
*END

*D_NET *119 0.0849243
*CONN
*P la_data_in[13] I
*I *419:FreqPhase[10] I *D DDS_Module
*CAP
1 la_data_in[13] 0.00715968
2 *419:FreqPhase[10] 0.0148775
3 *119:11 0.0148775
4 *119:9 0.0204249
5 *119:7 0.0204249
6 *119:5 0.00715968
7 io_oeb[0] *119:9 0
*RES
1 la_data_in[13] *119:5 60.164 
2 *119:5 *119:7 4.5 
3 *119:7 *119:9 177.528 
4 *119:9 *119:11 4.5 
5 *119:11 *419:FreqPhase[10] 125.06 
*END

*D_NET *120 0.0847047
*CONN
*P la_data_in[14] I
*I *419:FreqPhase[11] I *D DDS_Module
*CAP
1 la_data_in[14] 0.00790737
2 *419:FreqPhase[11] 0.0141502
3 *120:11 0.0141502
4 *120:9 0.0202948
5 *120:7 0.0202948
6 *120:5 0.00790737
*RES
1 la_data_in[14] *120:5 66.404 
2 *120:5 *120:7 4.5 
3 *120:7 *120:9 177.32 
4 *120:9 *120:11 4.5 
5 *120:11 *419:FreqPhase[11] 118.82 
*END

*D_NET *121 0.0846595
*CONN
*P la_data_in[15] I
*I *419:FreqPhase[12] I *D DDS_Module
*CAP
1 la_data_in[15] 0.00938677
2 *419:FreqPhase[12] 0.0126708
3 *121:11 0.0126708
4 *121:9 0.0202722
5 *121:7 0.0202722
6 *121:5 0.00938677
*RES
1 la_data_in[15] *121:5 78.884 
2 *121:5 *121:7 4.5 
3 *121:7 *121:9 177.112 
4 *121:9 *121:11 4.5 
5 *121:11 *419:FreqPhase[12] 106.34 
*END

*D_NET *122 0.0846142
*CONN
*P la_data_in[16] I
*I *419:FreqPhase[13] I *D DDS_Module
*CAP
1 la_data_in[16] 0.00975043
2 *419:FreqPhase[13] 0.0123071
3 *122:11 0.0123071
4 *122:9 0.0202495
5 *122:7 0.0202495
6 *122:5 0.00975043
*RES
1 la_data_in[16] *122:5 82.004 
2 *122:5 *122:7 4.5 
3 *122:7 *122:9 176.904 
4 *122:9 *122:11 4.5 
5 *122:11 *419:FreqPhase[13] 103.22 
*END

*D_NET *123 0.084569
*CONN
*P la_data_in[17] I
*I *419:FreqPhase[14] I *D DDS_Module
*CAP
1 la_data_in[17] 0.0108724
2 *419:FreqPhase[14] 0.0111852
3 *123:11 0.0111852
4 *123:9 0.0202269
5 *123:7 0.0202269
6 *123:5 0.0108724
*RES
1 la_data_in[17] *123:5 91.364 
2 *123:5 *123:7 4.5 
3 *123:7 *123:9 176.696 
4 *123:9 *123:11 4.5 
5 *123:11 *419:FreqPhase[14] 93.86 
*END

*D_NET *124 0.108013
*CONN
*P la_data_in[18] I
*I *419:FreqPhase[15] I *D DDS_Module
*CAP
1 la_data_in[18] 0.00128183
2 *419:FreqPhase[15] 0.000902644
3 *124:17 0.0163313
4 *124:15 0.0154287
5 *124:13 0.0203015
6 *124:11 0.0215833
7 *124:17 *178:9 0.0321835
*RES
1 la_data_in[18] *124:11 19.556 
2 *124:11 *124:13 170.872 
3 *124:13 *124:15 4.5 
4 *124:15 *124:17 174.616 
5 *124:17 *419:FreqPhase[15] 10.376 
*END

*D_NET *126 0.0857962
*CONN
*P la_data_in[1] I
*I *419:LoadP I *D DDS_Module
*CAP
1 la_data_in[1] 0.0121753
2 *419:LoadP 0.0100127
3 *126:11 0.0100127
4 *126:9 0.0207101
5 *126:7 0.0207101
6 *126:5 0.0121753
*RES
1 la_data_in[1] *126:5 100.724 
2 *126:5 *126:7 4.5 
3 *126:7 *126:9 180.024 
4 *126:9 *126:11 4.5 
5 *126:11 *419:LoadP 84.5 
*END

*D_NET *137 0.137239
*CONN
*P la_data_in[2] I
*I *419:LoadF I *D DDS_Module
*CAP
1 la_data_in[2] 0.0010923
2 *419:LoadF 0.021114
3 *137:11 0.021114
4 *137:9 0.0146049
5 *137:7 0.0156972
6 *137:9 *148:9 0.0636166
*RES
1 la_data_in[2] *137:7 11.624 
2 *137:7 *137:9 179.816 
3 *137:9 *137:11 4.5 
4 *137:11 *419:LoadF 178.1 
*END

*D_NET *148 0.176686
*CONN
*P la_data_in[3] I
*I *419:FreqPhase[0] I *D DDS_Module
*CAP