*SPEF "ieee 1481-1999"
*DESIGN "user_project_wrapper"
*DATE "11:11:11 Fri 11 11, 1111"
*VENDOR "OpenRCX"
*PROGRAM "Parallel Extraction"
*VERSION "1.0"
*DESIGN_FLOW "NAME_SCOPE LOCAL" "PIN_CAP NONE"
*DIVIDER /
*DELIMITER :
*BUS_DELIMITER []
*T_UNIT 1 NS
*C_UNIT 1 PF
*R_UNIT 1 OHM
*L_UNIT 1 HENRY

*NAME_MAP
*1 io_in[0]
*2 io_in[10]
*3 io_in[11]
*4 io_in[12]
*5 io_in[13]
*6 io_in[14]
*7 io_in[15]
*8 io_in[16]
*9 io_in[17]
*10 io_in[18]
*11 io_in[19]
*12 io_in[1]
*13 io_in[20]
*14 io_in[21]
*15 io_in[22]
*16 io_in[23]
*17 io_in[24]
*18 io_in[25]
*19 io_in[26]
*20 io_in[27]
*21 io_in[28]
*22 io_in[29]
*23 io_in[2]
*24 io_in[30]
*25 io_in[31]
*26 io_in[32]
*27 io_in[33]
*28 io_in[34]
*29 io_in[35]
*30 io_in[36]
*31 io_in[37]
*32 io_in[3]
*33 io_in[4]
*34 io_in[5]
*35 io_in[6]
*36 io_in[7]
*37 io_in[8]
*38 io_in[9]
*39 io_oeb[0]
*40 io_oeb[10]
*41 io_oeb[11]
*42 io_oeb[12]
*43 io_oeb[13]
*44 io_oeb[14]
*45 io_oeb[15]
*46 io_oeb[16]
*47 io_oeb[17]
*48 io_oeb[18]
*49 io_oeb[19]
*50 io_oeb[1]
*51 io_oeb[20]
*52 io_oeb[21]
*53 io_oeb[22]
*54 io_oeb[23]
*55 io_oeb[24]
*56 io_oeb[25]
*57 io_oeb[26]
*58 io_oeb[27]
*59 io_oeb[28]
*60 io_oeb[29]
*61 io_oeb[2]
*62 io_oeb[30]
*63 io_oeb[31]
*64 io_oeb[32]
*65 io_oeb[33]
*66 io_oeb[34]
*67 io_oeb[35]
*68 io_oeb[36]
*69 io_oeb[37]
*70 io_oeb[3]
*71 io_oeb[4]
*72 io_oeb[5]
*73 io_oeb[6]
*74 io_oeb[7]
*75 io_oeb[8]
*76 io_oeb[9]
*77 io_out[0]
*78 io_out[10]
*79 io_out[11]
*80 io_out[12]
*81 io_out[13]
*82 io_out[14]
*83 io_out[15]
*84 io_out[16]
*85 io_out[17]
*86 io_out[18]
*87 io_out[19]
*88 io_out[1]
*89 io_out[20]
*90 io_out[21]
*91 io_out[22]
*92 io_out[23]
*93 io_out[24]
*94 io_out[25]
*95 io_out[26]
*96 io_out[27]
*97 io_out[28]
*98 io_out[29]
*99 io_out[2]
*100 io_out[30]
*101 io_out[31]
*102 io_out[32]
*103 io_out[33]
*104 io_out[34]
*105 io_out[35]
*106 io_out[36]
*107 io_out[37]
*108 io_out[3]
*109 io_out[4]
*110 io_out[5]
*111 io_out[6]
*112 io_out[7]
*113 io_out[8]
*114 io_out[9]
*115 la_data_in[0]
*116 la_data_in[10]
*117 la_data_in[11]
*118 la_data_in[12]
*119 la_data_in[13]
*120 la_data_in[14]
*121 la_data_in[15]
*122 la_data_in[16]
*123 la_data_in[17]
*124 la_data_in[18]
*125 la_data_in[19]
*126 la_data_in[1]
*127 la_data_in[20]
*128 la_data_in[21]
*129 la_data_in[22]
*130 la_data_in[23]
*131 la_data_in[24]
*132 la_data_in[25]
*133 la_data_in[26]
*134 la_data_in[27]
*135 la_data_in[28]
*136 la_data_in[29]
*137 la_data_in[2]
*138 la_data_in[30]
*139 la_data_in[31]
*140 la_data_in[32]
*141 la_data_in[33]
*142 la_data_in[34]
*143 la_data_in[35]
*144 la_data_in[36]
*145 la_data_in[37]
*146 la_data_in[38]
*147 la_data_in[39]
*148 la_data_in[3]
*149 la_data_in[40]
*150 la_data_in[41]
*151 la_data_in[42]
*152 la_data_in[43]
*153 la_data_in[44]
*154 la_data_in[45]
*155 la_data_in[46]
*156 la_data_in[47]
*157 la_data_in[48]
*158 la_data_in[49]
*159 la_data_in[4]
*160 la_data_in[50]
*161 la_data_in[51]
*162 la_data_in[52]
*163 la_data_in[53]
*164 la_data_in[54]
*165 la_data_in[55]
*166 la_data_in[56]
*167 la_data_in[57]
*168 la_data_in[58]
*169 la_data_in[59]
*170 la_data_in[5]
*171 la_data_in[60]
*172 la_data_in[61]
*173 la_data_in[62]
*174 la_data_in[63]
*175 la_data_in[6]
*176 la_data_in[7]
*177 la_data_in[8]
*178 la_data_in[9]
*179 la_data_out[0]
*180 la_data_out[10]
*181 la_data_out[11]
*182 la_data_out[12]
*183 la_data_out[13]
*184 la_data_out[14]
*185 la_data_out[15]
*186 la_data_out[16]
*187 la_data_out[17]
*188 la_data_out[18]
*189 la_data_out[19]
*190 la_data_out[1]
*191 la_data_out[20]
*192 la_data_out[21]
*193 la_data_out[22]
*194 la_data_out[23]
*195 la_data_out[24]
*196 la_data_out[25]
*197 la_data_out[26]
*198 la_data_out[27]
*199 la_data_out[28]
*200 la_data_out[29]
*201 la_data_out[2]
*202 la_data_out[30]
*203 la_data_out[31]
*204 la_data_out[32]
*205 la_data_out[33]
*206 la_data_out[34]
*207 la_data_out[35]
*208 la_data_out[36]
*209 la_data_out[37]
*210 la_data_out[38]
*211 la_data_out[39]
*212 la_data_out[3]
*213 la_data_out[40]
*214 la_data_out[41]
*215 la_data_out[42]
*216 la_data_out[43]
*217 la_data_out[44]
*218 la_data_out[45]
*219 la_data_out[46]
*220 la_data_out[47]
*221 la_data_out[48]
*222 la_data_out[49]
*223 la_data_out[4]
*224 la_data_out[50]
*225 la_data_out[51]
*226 la_data_out[52]
*227 la_data_out[53]
*228 la_data_out[54]
*229 la_data_out[55]
*230 la_data_out[56]
*231 la_data_out[57]
*232 la_data_out[58]
*233 la_data_out[59]
*234 la_data_out[5]
*235 la_data_out[60]
*236 la_data_out[61]
*237 la_data_out[62]
*238 la_data_out[63]
*239 la_data_out[6]
*240 la_data_out[7]
*241 la_data_out[8]
*242 la_data_out[9]
*243 la_oenb[0]
*244 la_oenb[10]
*245 la_oenb[11]
*246 la_oenb[12]
*247 la_oenb[13]
*248 la_oenb[14]
*249 la_oenb[15]
*250 la_oenb[16]
*251 la_oenb[17]
*252 la_oenb[18]
*253 la_oenb[19]
*254 la_oenb[1]
*255 la_oenb[20]
*256 la_oenb[21]
*257 la_oenb[22]
*258 la_oenb[23]
*259 la_oenb[24]
*260 la_oenb[25]
*261 la_oenb[26]
*262 la_oenb[27]
*263 la_oenb[28]
*264 la_oenb[29]
*265 la_oenb[2]
*266 la_oenb[30]
*267 la_oenb[31]
*268 la_oenb[32]
*269 la_oenb[33]
*270 la_oenb[34]
*271 la_oenb[35]
*272 la_oenb[36]
*273 la_oenb[37]
*274 la_oenb[38]
*275 la_oenb[39]
*276 la_oenb[3]
*277 la_oenb[40]
*278 la_oenb[41]
*279 la_oenb[42]
*280 la_oenb[43]
*281 la_oenb[44]
*282 la_oenb[45]
*283 la_oenb[46]
*284 la_oenb[47]
*285 la_oenb[48]
*286 la_oenb[49]
*287 la_oenb[4]
*288 la_oenb[50]
*289 la_oenb[51]
*290 la_oenb[52]
*291 la_oenb[53]
*292 la_oenb[54]
*293 la_oenb[55]
*294 la_oenb[56]
*295 la_oenb[57]
*296 la_oenb[58]
*297 la_oenb[59]
*298 la_oenb[5]
*299 la_oenb[60]
*300 la_oenb[61]
*301 la_oenb[62]
*302 la_oenb[63]
*303 la_oenb[6]
*304 la_oenb[7]
*305 la_oenb[8]
*306 la_oenb[9]
*307 user_clock2
*308 user_irq[0]
*309 user_irq[1]
*310 user_irq[2]
*313 wb_clk_i
*314 wb_rst_i
*315 wbs_ack_o
*316 wbs_adr_i[0]
*317 wbs_adr_i[10]
*318 wbs_adr_i[11]
*319 wbs_adr_i[12]
*320 wbs_adr_i[13]
*321 wbs_adr_i[14]
*322 wbs_adr_i[15]
*323 wbs_adr_i[16]
*324 wbs_adr_i[17]
*325 wbs_adr_i[18]
*326 wbs_adr_i[19]
*327 wbs_adr_i[1]
*328 wbs_adr_i[20]
*329 wbs_adr_i[21]
*330 wbs_adr_i[22]
*331 wbs_adr_i[23]
*332 wbs_adr_i[24]
*333 wbs_adr_i[25]
*334 wbs_adr_i[26]
*335 wbs_adr_i[27]
*336 wbs_adr_i[28]
*337 wbs_adr_i[29]
*338 wbs_adr_i[2]
*339 wbs_adr_i[30]
*340 wbs_adr_i[31]
*341 wbs_adr_i[3]
*342 wbs_adr_i[4]
*343 wbs_adr_i[5]
*344 wbs_adr_i[6]
*345 wbs_adr_i[7]
*346 wbs_adr_i[8]
*347 wbs_adr_i[9]
*348 wbs_cyc_i
*349 wbs_dat_i[0]
*350 wbs_dat_i[10]
*351 wbs_dat_i[11]
*352 wbs_dat_i[12]
*353 wbs_dat_i[13]
*354 wbs_dat_i[14]
*355 wbs_dat_i[15]
*356 wbs_dat_i[16]
*357 wbs_dat_i[17]
*358 wbs_dat_i[18]
*359 wbs_dat_i[19]
*360 wbs_dat_i[1]
*361 wbs_dat_i[20]
*362 wbs_dat_i[21]
*363 wbs_dat_i[22]
*364 wbs_dat_i[23]
*365 wbs_dat_i[24]
*366 wbs_dat_i[25]
*367 wbs_dat_i[26]
*368 wbs_dat_i[27]
*369 wbs_dat_i[28]
*370 wbs_dat_i[29]
*371 wbs_dat_i[2]
*372 wbs_dat_i[30]
*373 wbs_dat_i[31]
*374 wbs_dat_i[3]
*375 wbs_dat_i[4]
*376 wbs_dat_i[5]
*377 wbs_dat_i[6]
*378 wbs_dat_i[7]
*379 wbs_dat_i[8]
*380 wbs_dat_i[9]
*381 wbs_dat_o[0]
*382 wbs_dat_o[10]
*383 wbs_dat_o[11]
*384 wbs_dat_o[12]
*385 wbs_dat_o[13]
*386 wbs_dat_o[14]
*387 wbs_dat_o[15]
*388 wbs_dat_o[16]
*389 wbs_dat_o[17]
*390 wbs_dat_o[18]
*391 wbs_dat_o[19]
*392 wbs_dat_o[1]
*393 wbs_dat_o[20]
*394 wbs_dat_o[21]
*395 wbs_dat_o[22]
*396 wbs_dat_o[23]
*397 wbs_dat_o[24]
*398 wbs_dat_o[25]
*399 wbs_dat_o[26]
*400 wbs_dat_o[27]
*401 wbs_dat_o[28]
*402 wbs_dat_o[29]
*403 wbs_dat_o[2]
*404 wbs_dat_o[30]
*405 wbs_dat_o[31]
*406 wbs_dat_o[3]
*407 wbs_dat_o[4]
*408 wbs_dat_o[5]
*409 wbs_dat_o[6]
*410 wbs_dat_o[7]
*411 wbs_dat_o[8]
*412 wbs_dat_o[9]
*413 wbs_sel_i[0]
*414 wbs_sel_i[1]
*415 wbs_sel_i[2]
*416 wbs_sel_i[3]
*417 wbs_stb_i
*418 wbs_we_i
*419 mprj

*PORTS
io_in[0] I
io_in[10] I
io_in[11] I
io_in[12] I
io_in[13] I
io_in[14] I
io_in[15] I
io_in[16] I
io_in[17] I
io_in[18] I
io_in[19] I
io_in[1] I
io_in[20] I
io_in[21] I
io_in[22] I
io_in[23] I
io_in[24] I
io_in[25] I
io_in[26] I
io_in[27] I
io_in[28] I
io_in[29] I
io_in[2] I
io_in[30] I
io_in[31] I
io_in[32] I
io_in[33] I
io_in[34] I
io_in[35] I
io_in[36] I
io_in[37] I
io_in[3] I
io_in[4] I
io_in[5] I
io_in[6] I
io_in[7] I
io_in[8] I
io_in[9] I
io_oeb[0] O
io_oeb[10] O
io_oeb[11] O
io_oeb[12] O
io_oeb[13] O
io_oeb[14] O
io_oeb[15] O
io_oeb[16] O
io_oeb[17] O
io_oeb[18] O
io_oeb[19] O
io_oeb[1] O
io_oeb[20] O
io_oeb[21] O
io_oeb[22] O
io_oeb[23] O
io_oeb[24] O
io_oeb[25] O
io_oeb[26] O
io_oeb[27] O
io_oeb[28] O
io_oeb[29] O
io_oeb[2] O
io_oeb[30] O
io_oeb[31] O
io_oeb[32] O
io_oeb[33] O
io_oeb[34] O
io_oeb[35] O
io_oeb[36] O
io_oeb[37] O
io_oeb[3] O
io_oeb[4] O
io_oeb[5] O
io_oeb[6] O
io_oeb[7] O
io_oeb[8] O
io_oeb[9] O
io_out[0] O
io_out[10] O
io_out[11] O
io_out[12] O
io_out[13] O
io_out[14] O
io_out[15] O
io_out[16] O
io_out[17] O
io_out[18] O
io_out[19] O
io_out[1] O
io_out[20] O
io_out[21] O
io_out[22] O
io_out[23] O
io_out[24] O
io_out[25] O
io_out[26] O
io_out[27] O
io_out[28] O
io_out[29] O
io_out[2] O
io_out[30] O
io_out[31] O
io_out[32] O
io_out[33] O
io_out[34] O
io_out[35] O
io_out[36] O
io_out[37] O
io_out[3] O
io_out[4] O
io_out[5] O
io_out[6] O
io_out[7] O
io_out[8] O
io_out[9] O
la_data_in[0] I
la_data_in[10] I
la_data_in[11] I
la_data_in[12] I
la_data_in[13] I
la_data_in[14] I
la_data_in[15] I
la_data_in[16] I
la_data_in[17] I
la_data_in[18] I
la_data_in[19] I
la_data_in[1] I
la_data_in[20] I
la_data_in[21] I
la_data_in[22] I
la_data_in[23] I
la_data_in[24] I
la_data_in[25] I
la_data_in[26] I
la_data_in[27] I
la_data_in[28] I
la_data_in[29] I
la_data_in[2] I
la_data_in[30] I
la_data_in[31] I
la_data_in[32] I
la_data_in[33] I
la_data_in[34] I
la_data_in[35] I
la_data_in[36] I
la_data_in[37] I
la_data_in[38] I
la_data_in[39] I
la_data_in[3] I
la_data_in[40] I
la_data_in[41] I
la_data_in[42] I
la_data_in[43] I
la_data_in[44] I
la_data_in[45] I
la_data_in[46] I
la_data_in[47] I
la_data_in[48] I
la_data_in[49] I
la_data_in[4] I
la_data_in[50] I
la_data_in[51] I
la_data_in[52] I
la_data_in[53] I
la_data_in[54] I
la_data_in[55] I
la_data_in[56] I
la_data_in[57] I
la_data_in[58] I
la_data_in[59] I
la_data_in[5] I
la_data_in[60] I
la_data_in[61] I
la_data_in[62] I
la_data_in[63] I
la_data_in[6] I
la_data_in[7] I
la_data_in[8] I
la_data_in[9] I
la_data_out[0] O
la_data_out[10] O
la_data_out[11] O
la_data_out[12] O
la_data_out[13] O
la_data_out[14] O
la_data_out[15] O
la_data_out[16] O
la_data_out[17] O
la_data_out[18] O
la_data_out[19] O
la_data_out[1] O
la_data_out[20] O
la_data_out[21] O
la_data_out[22] O
la_data_out[23] O
la_data_out[24] O
la_data_out[25] O
la_data_out[26] O
la_data_out[27] O
la_data_out[28] O
la_data_out[29] O
la_data_out[2] O
la_data_out[30] O
la_data_out[31] O
la_data_out[32] O
la_data_out[33] O
la_data_out[34] O
la_data_out[35] O
la_data_out[36] O
la_data_out[37] O
la_data_out[38] O
la_data_out[39] O
la_data_out[3] O
la_data_out[40] O
la_data_out[41] O
la_data_out[42] O
la_data_out[43] O
la_data_out[44] O
la_data_out[45] O
la_data_out[46] O
la_data_out[47] O
la_data_out[48] O
la_data_out[49] O
la_data_out[4] O
la_data_out[50] O
la_data_out[51] O
la_data_out[52] O
la_data_out[53] O
la_data_out[54] O
la_data_out[55] O
la_data_out[56] O
la_data_out[57] O
la_data_out[58] O
la_data_out[59] O
la_data_out[5] O
la_data_out[60] O
la_data_out[61] O
la_data_out[62] O
la_data_out[63] O
la_data_out[6] O
la_data_out[7] O
la_data_out[8] O
la_data_out[9] O
la_oenb[0] I
la_oenb[10] I
la_oenb[11] I
la_oenb[12] I
la_oenb[13] I
la_oenb[14] I
la_oenb[15] I
la_oenb[16] I
la_oenb[17] I
la_oenb[18] I
la_oenb[19] I
la_oenb[1] I
la_oenb[20] I
la_oenb[21] I
la_oenb[22] I
la_oenb[23] I
la_oenb[24] I
la_oenb[25] I
la_oenb[26] I
la_oenb[27] I
la_oenb[28] I
la_oenb[29] I
la_oenb[2] I
la_oenb[30] I
la_oenb[31] I
la_oenb[32] I
la_oenb[33] I
la_oenb[34] I
la_oenb[35] I
la_oenb[36] I
la_oenb[37] I
la_oenb[38] I
la_oenb[39] I
la_oenb[3] I
la_oenb[40] I
la_oenb[41] I
la_oenb[42] I
la_oenb[43] I
la_oenb[44] I
la_oenb[45] I
la_oenb[46] I
la_oenb[47] I
la_oenb[48] I
la_oenb[49] I
la_oenb[4] I
la_oenb[50] I
la_oenb[51] I
la_oenb[52] I
la_oenb[53] I
la_oenb[54] I
la_oenb[55] I
la_oenb[56] I
la_oenb[57] I
la_oenb[58] I
la_oenb[59] I
la_oenb[5] I
la_oenb[60] I
la_oenb[61] I
la_oenb[62] I
la_oenb[63] I
la_oenb[6] I
la_oenb[7] I
la_oenb[8] I
la_oenb[9] I
user_clock2 I
user_irq[0] O
user_irq[1] O
user_irq[2] O
wb_clk_i I
wb_rst_i I
wbs_ack_o O
wbs_adr_i[0] I
wbs_adr_i[10] I
wbs_adr_i[11] I
wbs_adr_i[12] I
wbs_adr_i[13] I
wbs_adr_i[14] I
wbs_adr_i[15] I
wbs_adr_i[16] I
wbs_adr_i[17] I
wbs_adr_i[18] I
wbs_adr_i[19] I
wbs_adr_i[1] I
wbs_adr_i[20] I
wbs_adr_i[21] I
wbs_adr_i[22] I
wbs_adr_i[23] I
wbs_adr_i[24] I
wbs_adr_i[25] I
wbs_adr_i[26] I
wbs_adr_i[27] I
wbs_adr_i[28] I
wbs_adr_i[29] I
wbs_adr_i[2] I
wbs_adr_i[30] I
wbs_adr_i[31] I
wbs_adr_i[3] I
wbs_adr_i[4] I
wbs_adr_i[5] I
wbs_adr_i[6] I
wbs_adr_i[7] I
wbs_adr_i[8] I
wbs_adr_i[9] I
wbs_cyc_i I
wbs_dat_i[0] I
wbs_dat_i[10] I
wbs_dat_i[11] I
wbs_dat_i[12] I
wbs_dat_i[13] I
wbs_dat_i[14] I
wbs_dat_i[15] I
wbs_dat_i[16] I
wbs_dat_i[17] I
wbs_dat_i[18] I
wbs_dat_i[19] I
wbs_dat_i[1] I
wbs_dat_i[20] I
wbs_dat_i[21] I
wbs_dat_i[22] I
wbs_dat_i[23] I
wbs_dat_i[24] I
wbs_dat_i[25] I
wbs_dat_i[26] I
wbs_dat_i[27] I
wbs_dat_i[28] I
wbs_dat_i[29] I
wbs_dat_i[2] I
wbs_dat_i[30] I
wbs_dat_i[31] I
wbs_dat_i[3] I
wbs_dat_i[4] I
wbs_dat_i[5] I
wbs_dat_i[6] I
wbs_dat_i[7] I
wbs_dat_i[8] I
wbs_dat_i[9] I
wbs_dat_o[0] O
wbs_dat_o[10] O
wbs_dat_o[11] O
wbs_dat_o[12] O
wbs_dat_o[13] O
wbs_dat_o[14] O
wbs_dat_o[15] O
wbs_dat_o[16] O
wbs_dat_o[17] O
wbs_dat_o[18] O
wbs_dat_o[19] O
wbs_dat_o[1] O
wbs_dat_o[20] O
wbs_dat_o[21] O
wbs_dat_o[22] O
wbs_dat_o[23] O
wbs_dat_o[24] O
wbs_dat_o[25] O
wbs_dat_o[26] O
wbs_dat_o[27] O
wbs_dat_o[28] O
wbs_dat_o[29] O
wbs_dat_o[2] O
wbs_dat_o[30] O
wbs_dat_o[31] O
wbs_dat_o[3] O
wbs_dat_o[4] O
wbs_dat_o[5] O
wbs_dat_o[6] O
wbs_dat_o[7] O
wbs_dat_o[8] O
wbs_dat_o[9] O
wbs_sel_i[0] I
wbs_sel_i[1] I
wbs_sel_i[2] I
wbs_sel_i[3] I
wbs_stb_i I
wbs_we_i I

*D_NET *39 0.202847
*CONN
*P io_oeb[0] O
*I *419:io_oeb[0] O *D DDS_Module
*CAP
1 io_oeb[0] 0.0733554
2 *419:io_oeb[0] 0.000764061
3 *39:11 0.0733554
4 *39:9 0.00442222
5 *39:7 0.00518628
6 io_oeb[0] *119:9 0
7 *39:9 *50:9 0.00802772
8 *39:9 *77:9 0.00799264
9 *39:9 *88:9 0.0277302
10 *39:9 *99:9 0.00201362
*RES
1 *419:io_oeb[0] *39:7 10.485 
2 *39:7 *39:9 111.15 
3 *39:9 *39:11 4.5 
4 *39:11 io_oeb[0] 588.465 
*END

*D_NET *40 0.293493
*CONN
*P io_oeb[10] O
*I *419:io_oeb[10] O *D DDS_Module
*CAP
1 io_oeb[10] 0.0992222
2 *419:io_oeb[10] 0
3 *40:8 0.0992222
4 *40:6 0.0475242
5 *40:4 0.0475242
*RES
1 *419:io_oeb[10] *40:4 4.5 
2 *40:4 *40:6 387.99 
3 *40:6 *40:8 4.5 
4 *40:8 io_oeb[10] 796.545 
*END

*D_NET *41 0.538514
*CONN
*P io_oeb[11] O
*I *419:io_oeb[11] O *D DDS_Module
*CAP
1 io_oeb[11] 0.0999495
2 *419:io_oeb[11] 0.000762269
3 *41:11 0.0999495
4 *41:9 0.0119085
5 *41:7 0.0126708
6 *41:9 *42:9 0.192889
7 *41:9 *76:9 0.120384
*RES
1 *419:io_oeb[11] *41:7 9.405 
2 *41:7 *41:9 477.45 
3 *41:9 *41:11 4.5 
4 *41:11 io_oeb[11] 801.405 
*END

*D_NET *42 0.63691
*CONN
*P io_oeb[12] O
*I *419:io_oeb[12] O *D DDS_Module
*CAP
1 io_oeb[12] 0.0998941
2 *419:io_oeb[12] 0.000723763
3 *42:11 0.0998941
4 *42:9 0.00687519
5 *42:7 0.00759895
6 *42:9 *43:9 0.229035
7 *41:9 *42:9 0.192889
*RES
1 *419:io_oeb[12] *42:7 9.225 
2 *42:7 *42:9 567.09 
3 *42:9 *42:11 4.5 
4 *42:11 io_oeb[12] 801.225 
*END

*D_NET *43 0.70949
*CONN
*P io_oeb[13] O
*I *419:io_oeb[13] O *D DDS_Module
*CAP
1 io_oeb[13] 0.0998387
2 *419:io_oeb[13] 0.000685257
3 *43:11 0.0998387
4 *43:9 0.00708442
5 *43:7 0.00776968
6 *43:9 *44:9 0.265239
7 *42:9 *43:9 0.229035
*RES
1 *419:io_oeb[13] *43:7 9.045 
2 *43:7 *43:9 656.73 
3 *43:9 *43:11 4.5 
4 *43:11 io_oeb[13] 801.045 
*END

*D_NET *44 0.694243
*CONN
*P io_oeb[14] O
*I *419:io_oeb[14] O *D DDS_Module
*CAP
1 io_oeb[14] 0.0997889
2 *419:io_oeb[14] 0.000644468
3 *44:11 0.0997889
4 *44:9 0.0805886
5 *44:7 0.0812331
6 *44:9 *45:9 0.06696
7 *43:9 *44:9 0.265239
*RES
1 *419:io_oeb[14] *44:7 8.865 
2 *44:7 *44:9 746.37 
3 *44:9 *44:11 4.5 
4 *44:11 io_oeb[14] 800.865 
*END

*D_NET *45 0.589011
*CONN
*P io_oeb[15] O
*I *419:io_oeb[15] O *D DDS_Module
*CAP
1 io_oeb[15] 0.00109135
2 *419:io_oeb[15] 0.000637706
3 *45:13 0.0592796
4 *45:11 0.0581882
5 *45:9 0.100579
6 *45:7 0.101217
7 *45:13 *83:13 0.201057
8 *44:9 *45:9 0.06696
*RES
1 *419:io_oeb[15] *45:7 8.865 
2 *45:7 *45:9 775.35 
3 *45:9 *45:11 4.5 
4 *45:11 *45:13 712.35 
5 *45:13 io_oeb[15] 12.825 
*END

*D_NET *50 0.169122
*CONN
*P io_oeb[1] O
*I *419:io_oeb[1] O *D DDS_Module
*CAP
1 io_oeb[1] 0.0732435
2 *419:io_oeb[1] 0.000824131
3 *50:11 0.0732435
4 *50:9 0.00371173
5 *50:7 0.00453586
6 *50:9 *99:9 0.0055357
7 *39:9 *50:9 0.00802772
*RES
1 *419:io_oeb[1] *50:7 10.845 
2 *50:7 *50:9 56.25 
3 *50:9 *50:11 4.5 
4 *50:11 io_oeb[1] 588.105 
*END

*D_NET *61 0.148141
*CONN
*P io_oeb[2] O
*I *419:io_oeb[2] O *D DDS_Module
*CAP
1 io_oeb[2] 0.000129052
2 *419:io_oeb[2] 0.0739412
3 *61:5 0.0740703
*RES
1 *419:io_oeb[2] *61:5 594.405 
2 *61:5 io_oeb[2] 1.755 
*END

*D_NET *70 0.176006
*CONN
*P io_oeb[3] O
*I *419:io_oeb[3] O *D DDS_Module
*CAP
1 io_oeb[3] 0.00114144
2 *419:io_oeb[3] 0.0729083
3 *70:9 0.00321693
4 *70:7 0.00207549
5 *70:5 0.0729083
6 *70:9 *71:9 0.0183257
7 *70:9 *72:9 0.000638272
8 *70:9 *73:9 0.00106467
9 *70:9 *74:9 0.0037269
*RES
1 *419:io_oeb[3] *70:5 586.305 
2 *70:5 *70:7 4.5 
3 *70:7 *70:9 54.09 
4 *70:9 io_oeb[3] 12.645 
*END

*D_NET *71 0.189993
*CONN
*P io_oeb[4] O
*I *419:io_oeb[4] O *D DDS_Module
*CAP
1 io_oeb[4] 0.00117996
2 *419:io_oeb[4] 0.0728867
3 *71:9 0.00882132
4 *71:7 0.00764136
5 *71:5 0.0728867
6 *71:9 *74:9 0.00825157
7 *70:9 *71:9 0.0183257
*RES
1 *419:io_oeb[4] *71:5 586.125 
2 *71:5 *71:7 4.5 
3 *71:7 *71:9 109.17 
4 *71:9 io_oeb[4] 12.825 
*END

*D_NET *72 0.216547
*CONN
*P io_oeb[5] O
*I *419:io_oeb[5] O *D DDS_Module
*CAP
1 io_oeb[5] 0.000982793
2 *419:io_oeb[5] 0.07305
3 *72:9 0.0118056
4 *72:7 0.0108228
5 *72:5 0.07305
6 *72:9 *73:9 0.0147459
7 *72:9 *112:9 0.0314522
8 *70:9 *72:9 0.000638272
*RES
1 *419:io_oeb[5] *72:5 587.205 
2 *72:5 *72:7 4.5 
3 *72:7 *72:9 164.43 
4 *72:9 io_oeb[5] 11.745 
*END

*D_NET *73 0.308001
*CONN
*P io_oeb[6] O
*I *419:io_oeb[6] O *D DDS_Module
*CAP
1 io_oeb[6] 0.00104288
2 *419:io_oeb[6] 0.0730069
3 *73:9 0.00198453
4 *73:7 0.000941648
5 *73:5 0.0730069
6 *73:9 *74:9 0.0850789
7 *73:9 *112:9 0.0571283
8 *70:9 *73:9 0.00106467
9 *72:9 *73:9 0.0147459
*RES
1 *419:io_oeb[6] *73:5 586.845 
2 *73:5 *73:7 4.5 
3 *73:7 *73:9 219.33 
4 *73:9 io_oeb[6] 12.105 
*END

*D_NET *74 0.332744
*CONN
*P io_oeb[7] O
*I *419:io_oeb[7] O *D DDS_Module
*CAP
1 io_oeb[7] 0.00104753
2 *419:io_oeb[7] 0.0729959
3 *74:9 0.00461869
4 *74:7 0.00357116
5 *74:5 0.0729959
6 *74:5 io_out[3] 0
7 *74:9 *78:9 0.0723998
8 *74:9 *112:9 0.00805788
9 *70:9 *74:9 0.0037269
10 *71:9 *74:9 0.00825157
11 *73:9 *74:9 0.0850789
*RES
1 *419:io_oeb[7] *74:5 586.665 
2 *74:5 *74:7 4.5 
3 *74:7 *74:9 274.41 
4 *74:9 io_oeb[7] 12.285 
*END

*D_NET *75 0.312134
*CONN
*P io_oeb[8] O
*I *419:io_oeb[8] O *D DDS_Module
*CAP
1 io_oeb[8] 0.100094
2 *419:io_oeb[8] 0.000847745
3 *75:11 0.100094
4 *75:9 0.0129979
5 *75:7 0.0138457
6 *75:9 *76:9 0.0842542
*RES
1 *419:io_oeb[8] *75:7 9.765 
2 *75:7 *75:9 208.53 
3 *75:9 *75:11 4.5 
4 *75:11 io_oeb[8] 801.765 
*END

*D_NET *76 0.418734
*CONN
*P io_oeb[9] O
*I *419:io_oeb[9] O *D DDS_Module
*CAP
1 io_oeb[9] 0.100039
2 *419:io_oeb[9] 0.000809239
3 *76:11 0.100039
4 *76:9 0.00619988
5 *76:7 0.00700912
6 *41:9 *76:9 0.120384
7 *75:9 *76:9 0.0842542
*RES
1 *419:io_oeb[9] *76:7 9.585 
2 *76:7 *76:9 298.17 
3 *76:9 *76:11 4.5 
4 *76:11 io_oeb[9] 801.585 
*END

*D_NET *77 0.240438
*CONN
*P io_out[0] O
*I *419:Cos_Out[0] O *D DDS_Module
*CAP
1 io_out[0] 0.0734499
2 *419:Cos_Out[0] 0.000687049
3 *77:11 0.0734499
4 *77:9 0.014273
5 *77:7 0.01496
6 *77:9 *88:9 0.0556258
7 *39:9 *77:9 0.00799264
*RES
1 *419:Cos_Out[0] *77:7 10.125 
2 *77:7 *77:9 201.69 
3 *77:9 *77:11 4.5 
4 *77:11 io_out[0] 588.825 
*END

*D_NET *78 0.381282
*CONN
*P io_out[10] O
*I *419:Cos_Out[10] O *D DDS_Module
*CAP
1 io_out[10] 0.00106911
2 *419:Cos_Out[10] 0.0729468
3 *78:9 0.0127082
4 *78:7 0.011639
5 *78:5 0.0729468
6 *78:9 *79:9 0.137572
7 *74:9 *78:9 0.0723998
*RES
1 *419:Cos_Out[10] *78:5 586.485 
2 *78:5 *78:7 4.5 
3 *78:7 *78:9 349.29 
4 *78:9 io_out[10] 12.465 
*END

*D_NET *79 0.456343
*CONN
*P io_out[11] O
*I *419:Cos_Out[11] O *D DDS_Module
*CAP
1 io_out[11] 0.00109069
2 *419:Cos_Out[11] 0.0729252
3 *79:9 0.00655275
4 *79:7 0.00546206
5 *79:5 0.0729252
6 *79:9 *80:9 0.159815
7 *78:9 *79:9 0.137572
*RES
1 *419:Cos_Out[11] *79:5 586.305 
2 *79:5 *79:7 4.5 
3 *79:7 *79:9 404.37 
4 *79:9 io_out[11] 12.645 
*END

*D_NET *80 0.373442
*CONN
*P io_out[12] O
*I *419:Cos_Out[12] O *D DDS_Module
*CAP
1 io_out[12] 0.00134433
2 *419:Cos_Out[12] 0.0729036
3 *80:9 0.0339099
4 *80:7 0.0325655
5 *80:5 0.0729036
6 *79:9 *80:9 0.159815
*RES
1 *419:Cos_Out[12] *80:5 586.125 
2 *80:5 *80:7 4.5 
3 *80:7 *80:9 459.45 
4 *80:9 io_out[12] 12.825 
*END

*D_NET *81 0.492845
*CONN
*P io_out[13] O
*I *419:Cos_Out[13] O *D DDS_Module
*CAP
1 io_out[13] 0.0732396
2 *419:Cos_Out[13] 0.000725555
3 *81:11 0.0732396
4 *81:9 0.0169154
5 *81:7 0.017641
6 *81:9 *82:9 0.204291
7 *81:9 *110:9 0.00193251
8 *81:9 *114:9 0.104861
*RES
1 *419:Cos_Out[13] *81:7 10.305 
2 *81:7 *81:9 514.53 
3 *81:9 *81:11 4.5 
4 *81:11 io_out[13] 588.645 
*END

*D_NET *82 0.481389
*CONN
*P io_out[14] O
*I *419:Cos_Out[14] O *D DDS_Module
*CAP
1 io_out[14] 0.0732681
2 *419:Cos_Out[14] 0.000687049
3 *82:11 0.0732681
4 *82:9 0.0394213
5 *82:7 0.0401084
6 *82:9 *83:9 0.0503456
7 *81:9 *82:9 0.204291
*RES
1 *419:Cos_Out[14] *82:7 10.125 
2 *82:7 *82:9 569.61 
3 *82:9 *82:11 4.5 
4 *82:11 io_out[14] 588.825 
*END

*D_NET *83 0.479973
*CONN
*P io_out[15] O
*I *419:Cos_Out[15] O *D DDS_Module
*CAP
1 io_out[15] 0.00132984
2 *419:Cos_Out[15] 0.000873185
3 *83:13 0.0374754
4 *83:11 0.0361456
5 *83:9 0.0759367
6 *83:7 0.0768099
7 *45:13 *83:13 0.201057
8 *82:9 *83:9 0.0503456
*RES
1 *419:Cos_Out[15] *83:7 10.125 
2 *83:7 *83:9 585.45 
3 *83:9 *83:11 4.5 
4 *83:11 *83:13 535.77 
5 *83:13 io_out[15] 12.645 
*END

*D_NET *88 0.25256
*CONN
*P io_out[1] O
*I *419:Cos_Out[1] O *D DDS_Module
*CAP
1 io_out[1] 0.0733251
2 *419:Cos_Out[1] 0.000708628
3 *88:11 0.0733251
4 *88:9 0.00115987
5 *88:7 0.0018685
6 *88:9 *99:9 0.0110627
7 *88:9 *108:9 0.00775426
8 *39:9 *88:9 0.0277302
9 *77:9 *88:9 0.0556258
*RES
1 *419:Cos_Out[1] *88:7 10.305 
2 *88:7 *88:9 146.61 
3 *88:9 *88:11 4.5 
4 *88:11 io_out[1] 588.645 
*END

*D_NET *99 0.188196
*CONN
*P io_out[2] O
*I *419:Cos_Out[2] O *D DDS_Module
*CAP
1 io_out[2] 0.0732134
2 *419:Cos_Out[2] 0.000768714
3 *99:11 0.0732134
4 *99:9 0.00520889
5 *99:7 0.00597761
6 *99:9 *108:9 0.0112021
7 *39:9 *99:9 0.00201362
8 *50:9 *99:9 0.0055357
9 *88:9 *99:9 0.0110627
*RES
1 *419:Cos_Out[2] *99:7 10.665 
2 *99:7 *99:9 91.53 
3 *99:9 *99:11 4.5 
4 *99:11 io_out[2] 588.285 
*END

*D_NET *108 0.170311
*CONN
*P io_out[3] O
*I *419:Cos_Out[3] O *D DDS_Module
*CAP
1 io_out[3] 0.0733026
2 *419:Cos_Out[3] 0.00237457
3 *108:11 0.0733026
4 *108:9 0.00237457
5 *74:5 io_out[3] 0
6 *88:9 *108:9 0.00775426
7 *99:9 *108:9 0.0112021
*RES
1 *419:Cos_Out[3] *108:9 46.935 
2 *108:9 *108:11 4.5 
3 *108:11 io_out[3] 588.465 
*END

*D_NET *109 0.155703
*CONN
*P io_out[4] O
*I *419:Cos_Out[4] O *D DDS_Module
*CAP
1 io_out[4] 0.0733242
2 *419:Cos_Out[4] 0.0023639
3 *109:11 0.0756881
4 io_out[4] *111:7 0
5 *109:11 *110:9 0.00413623
6 *109:11 *111:9 0.000190837
*RES
1 *419:Cos_Out[4] *109:11 33.615 
2 *109:11 io_out[4] 588.645 
*END

*D_NET *110 0.173866
*CONN
*P io_out[5] O
*I *419:Cos_Out[5] O *D DDS_Module
*CAP
1 io_out[5] 0.0734473
2 *419:Cos_Out[5] 0.000687049
3 *110:11 0.0734473
4 *110:9 0.00520716
5 *110:7 0.00589421
6 *110:9 *111:9 0.0014891
7 *110:9 *113:9 0.0010768
8 *110:9 *114:9 0.00654828
9 *81:9 *110:9 0.00193251
10 *109:11 *110:9 0.00413623
*RES
1 *419:Cos_Out[5] *110:7 10.125 
2 *110:7 *110:9 73.89 
3 *110:9 *110:11 4.5 
4 *110:11 io_out[5] 588.825 
*END

*D_NET *111 0.21189
*CONN
*P io_out[6] O
*I *419:Cos_Out[6] O *D DDS_Module
*CAP
1 io_out[6] 0.0732764
2 *419:Cos_Out[6] 0.000807205
3 *111:11 0.0732764
4 *111:9 0.00849647
5 *111:7 0.00930367
6 *111:9 *113:9 0.0450501
7 io_out[4] *111:7 0
8 *109:11 *111:9 0.000190837
9 *110:9 *111:9 0.0014891
*RES
1 *419:Cos_Out[6] *111:7 10.845 
2 *111:7 *111:9 128.97 
3 *111:9 *111:11 4.5 
4 *111:11 io_out[6] 588.105 
*END

*D_NET *112 0.259043
*CONN
*P io_out[7] O
*I *419:Cos_Out[7] O *D DDS_Module
*CAP
1 io_out[7] 0.00120706
2 *419:Cos_Out[7] 0.0730284
3 *112:9 0.00817415
4 *112:7 0.0069671
5 *112:5 0.0730284
6 *72:9 *112:9 0.0314522
7 *73:9 *112:9 0.0571283
8 *74:9 *112:9 0.00805788
*RES
1 *419:Cos_Out[7] *112:5 587.025 
2 *112:5 *112:7 4.5 
3 *112:7 *112:9 184.05 
4 *112:9 io_out[7] 11.925 
*END

*D_NET *113 0.304073
*CONN
*P io_out[8] O
*I *419:Cos_Out[8] O *D DDS_Module
*CAP
1 io_out[8] 0.0732472
2 *419:Cos_Out[8] 0.000768698
3 *113:11 0.0732472
4 *113:9 0.00842829
5 *113:7 0.00919699
6 *113:9 *114:9 0.0930577
7 *110:9 *113:9 0.0010768
8 *111:9 *113:9 0.0450501
*RES
1 *419:Cos_Out[8] *113:7 10.665 
2 *113:7 *113:9 239.13 
3 *113:9 *113:11 4.5 
4 *113:11 io_out[8] 588.285 
*END

*D_NET *114 0.361861
*CONN
*P io_out[9] O
*I *419:Cos_Out[9] O *D DDS_Module
*CAP
1 io_out[9] 0.0732688
2 *419:Cos_Out[9] 0.000747119
3 *114:11 0.0732688
4 *114:9 0.00468093
5 *114:7 0.00542805
6 *81:9 *114:9 0.104861
7 *110:9 *114:9 0.00654828
8 *113:9 *114:9 0.0930577
*RES
1 *419:Cos_Out[9] *114:7 10.485 
2 *114:7 *114:9 294.21 
3 *114:9 *114:11 4.5 
4 *114:11 io_out[9] 588.465 
*END

*D_NET *115 0.0928019
*CONN
*P la_data_in[0] I
*I *419:Enable I *D DDS_Module
*CAP
1 la_data_in[0] 0.00123516
2 *419:Enable 0.0196104
3 *115:11 0.0196104
4 *115:9 0.0167916
5 *115:7 0.0180268
6 *115:9 *118:9 0.0175274
*RES
1 la_data_in[0] *115:7 13.365 
2 *115:7 *115:9 155.97 
3 *115:9 *115:11 4.5 
4 *115:11 *419:Enable 151.425 
*END

*D_NET *116 0.0802868
*CONN
*P la_data_in[10] I
*I *419:FreqPhase[7] I *D DDS_Module
*CAP
1 la_data_in[10] 0.00504087
2 *419:FreqPhase[7] 0.0158314
3 *116:11 0.0158314
4 *116:9 0.0192712
5 *116:7 0.024312
*RES
1 la_data_in[10] *116:7 43.065 
2 *116:7 *116:9 154.17 
3 *116:9 *116:11 4.5 
4 *116:11 *419:FreqPhase[7] 121.725 
*END

*D_NET *117 0.0802437
*CONN
*P la_data_in[11] I
*I *419:FreqPhase[8] I *D DDS_Module
*CAP
1 la_data_in[11] 0.00610276
2 *419:FreqPhase[8] 0.0147695
3 *117:11 0.0147695
4 *117:9 0.0192496
5 *117:7 0.0192496
6 *117:5 0.00610276
*RES
1 la_data_in[11] *117:5 46.665 
2 *117:5 *117:7 4.5 
3 *117:7 *117:9 153.99 
4 *117:9 *117:11 4.5 
5 *117:11 *419:FreqPhase[8] 113.625 
*END

*D_NET *118 0.0923875
*CONN
*P la_data_in[12] I
*I *419:FreqPhase[9] I *D DDS_Module
*CAP
1 la_data_in[12] 0.00118914
2 *419:FreqPhase[9] 0.0196831
3 *118:11 0.0196831
4 *118:9 0.0165578
5 *118:7 0.0177469
6 *115:9 *118:9 0.0175274
*RES
1 la_data_in[12] *118:7 13.545 
2 *118:7 *118:9 153.81 
3 *118:9 *118:11 4.5 
4 *118:11 *419:FreqPhase[9] 151.245 
*END

*D_NET *119 0.0803281
*CONN
*P la_data_in[13] I
*I *419:FreqPhase[10] I *D DDS_Module
*CAP
1 la_data_in[13] 0.00677661
2 *419:FreqPhase[10] 0.0140797
3 *119:11 0.0140797
4 *119:9 0.0193077
5 *119:7 0.0193077
6 *119:5 0.00677661
7 io_oeb[0] *119:9 0
*RES
1 la_data_in[13] *119:5 52.065 
2 *119:5 *119:7 4.5 
3 *119:7 *119:9 153.63 
4 *119:9 *119:11 4.5 
5 *119:11 *419:FreqPhase[10] 108.225 
*END

*D_NET *120 0.0801476
*CONN
*P la_data_in[14] I
*I *419:FreqPhase[11] I *D DDS_Module
*CAP
1 la_data_in[14] 0.00748235
2 *419:FreqPhase[11] 0.0133899
3 *120:11 0.0133899
4 *120:9 0.0192015
5 *120:7 0.0192015
6 *120:5 0.00748235
*RES
1 la_data_in[14] *120:5 57.465 
2 *120:5 *120:7 4.5 
3 *120:7 *120:9 153.45 
4 *120:9 *120:11 4.5 
5 *120:11 *419:FreqPhase[11] 102.825 
*END

*D_NET *121 0.0801044
*CONN
*P la_data_in[15] I
*I *419:FreqPhase[12] I *D DDS_Module
*CAP
1 la_data_in[15] 0.0088837
2 *419:FreqPhase[12] 0.0119885
3 *121:11 0.0119885
4 *121:9 0.01918
5 *121:7 0.01918
6 *121:5 0.0088837
*RES
1 la_data_in[15] *121:5 68.265 
2 *121:5 *121:7 4.5 
3 *121:7 *121:9 153.27 
4 *121:9 *121:11 4.5 
5 *121:11 *419:FreqPhase[12] 92.025 
*END

*D_NET *122 0.0800612
*CONN
*P la_data_in[16] I
*I *419:FreqPhase[13] I *D DDS_Module
*CAP
1 la_data_in[16] 0.0092286
2 *419:FreqPhase[13] 0.0116436
3 *122:11 0.0116436
4 *122:9 0.0191584
5 *122:7 0.0191584
6 *122:5 0.0092286
*RES
1 la_data_in[16] *122:5 70.965 
2 *122:5 *122:7 4.5 
3 *122:7 *122:9 153.09 
4 *122:9 *122:11 4.5 
5 *122:11 *419:FreqPhase[13] 89.325 
*END

*D_NET *123 0.0800181
*CONN
*P la_data_in[17] I
*I *419:FreqPhase[14] I *D DDS_Module
*CAP
1 la_data_in[17] 0.0102905
2 *419:FreqPhase[14] 0.0105818
3 *123:11 0.0105818
4 *123:9 0.0191368
5 *123:7 0.0191368
6 *123:5 0.0102905
*RES
1 la_data_in[17] *123:5 79.065 
2 *123:5 *123:7 4.5 
3 *123:7 *123:9 152.91 
4 *123:9 *123:11 4.5 
5 *123:11 *419:FreqPhase[14] 81.225 
*END

*D_NET *124 0.0997573
*CONN
*P la_data_in[18] I
*I *419:FreqPhase[15] I *D DDS_Module
*CAP
1 la_data_in[18] 0.00120807
2 *419:FreqPhase[15] 0.000832964
3 *124:17 0.015413
4 *124:15 0.01458
5 *124:13 0.0192165
6 *124:11 0.0204246
7 *124:17 *178:9 0.0280821
*RES
1 la_data_in[18] *124:11 18.135 
2 *124:11 *124:13 147.87 
3 *124:13 *124:15 4.5 
4 *124:15 *124:17 151.11 
5 *124:17 *419:FreqPhase[15] 9.585 
*END

*D_NET *126 0.0811018
*CONN
*P la_data_in[1] I
*I *419:LoadP I *D DDS_Module
*CAP
1 la_data_in[1] 0.0114899
2 *419:LoadP 0.00948326
3 *126:11 0.00948326
4 *126:9 0.0195778
5 *126:7 0.0195778
6 *126:5 0.0114899
*RES
1 la_data_in[1] *126:5 87.165 
2 *126:5 *126:7 4.5 
3 *126:7 *126:9 155.79 
4 *126:9 *126:11 4.5 
5 *126:11 *419:LoadP 73.125 
*END

*D_NET *137 0.124018
*CONN
*P la_data_in[2] I
*I *419:LoadF I *D DDS_Module
*CAP
1 la_data_in[2] 0.00100834
2 *419:LoadF 0.0199946
3 *137:11 0.0199946
4 *137:9 0.0132901
5 *137:7 0.0142984
6 *137:9 *148:9 0.055432
*RES
1 la_data_in[2] *137:7 10.665 
2 *137:7 *137:9 155.61 
3 *137:9 *137:11 4.5 
4 *137:11 *419:LoadF 154.125 
*END

*D_NET *148 0.1566
*CONN
*P la_data_in[3] I
*I *419:FreqPhase[0] I *D DDS_Module
*CAP